* NGSPICE file created from suma_mult_TOP.ext - technology: gf180mcuC

* Black-box entry subcircuit for gf180mcu_fd_sc_mcu7t5v0__fill_1 abstract view
.subckt gf180mcu_fd_sc_mcu7t5v0__fill_1 VDD VSS
.ends

* Black-box entry subcircuit for gf180mcu_fd_sc_mcu7t5v0__antenna abstract view
.subckt gf180mcu_fd_sc_mcu7t5v0__antenna I VDD VSS
.ends

* Black-box entry subcircuit for gf180mcu_fd_sc_mcu7t5v0__and2_1 abstract view
.subckt gf180mcu_fd_sc_mcu7t5v0__and2_1 A1 A2 Z VDD VSS
.ends

* Black-box entry subcircuit for gf180mcu_fd_sc_mcu7t5v0__fillcap_64 abstract view
.subckt gf180mcu_fd_sc_mcu7t5v0__fillcap_64 VDD VSS
.ends

* Black-box entry subcircuit for gf180mcu_fd_sc_mcu7t5v0__xor3_1 abstract view
.subckt gf180mcu_fd_sc_mcu7t5v0__xor3_1 A1 A2 A3 Z VDD VSS
.ends

* Black-box entry subcircuit for gf180mcu_fd_sc_mcu7t5v0__fillcap_4 abstract view
.subckt gf180mcu_fd_sc_mcu7t5v0__fillcap_4 VDD VSS
.ends

* Black-box entry subcircuit for gf180mcu_fd_sc_mcu7t5v0__fill_2 abstract view
.subckt gf180mcu_fd_sc_mcu7t5v0__fill_2 VDD VSS
.ends

* Black-box entry subcircuit for gf180mcu_fd_sc_mcu7t5v0__fillcap_16 abstract view
.subckt gf180mcu_fd_sc_mcu7t5v0__fillcap_16 VDD VSS
.ends

* Black-box entry subcircuit for gf180mcu_fd_sc_mcu7t5v0__buf_1 abstract view
.subckt gf180mcu_fd_sc_mcu7t5v0__buf_1 I Z VDD VSS
.ends

* Black-box entry subcircuit for gf180mcu_fd_sc_mcu7t5v0__fillcap_8 abstract view
.subckt gf180mcu_fd_sc_mcu7t5v0__fillcap_8 VDD VSS
.ends

* Black-box entry subcircuit for gf180mcu_fd_sc_mcu7t5v0__nand2_1 abstract view
.subckt gf180mcu_fd_sc_mcu7t5v0__nand2_1 A1 A2 ZN VDD VSS
.ends

* Black-box entry subcircuit for gf180mcu_fd_sc_mcu7t5v0__filltie abstract view
.subckt gf180mcu_fd_sc_mcu7t5v0__filltie VDD VSS
.ends

* Black-box entry subcircuit for gf180mcu_fd_sc_mcu7t5v0__or2_1 abstract view
.subckt gf180mcu_fd_sc_mcu7t5v0__or2_1 A1 A2 Z VDD VSS
.ends

* Black-box entry subcircuit for gf180mcu_fd_sc_mcu7t5v0__oai21_1 abstract view
.subckt gf180mcu_fd_sc_mcu7t5v0__oai21_1 A1 A2 B ZN VDD VSS
.ends

* Black-box entry subcircuit for gf180mcu_fd_sc_mcu7t5v0__fillcap_32 abstract view
.subckt gf180mcu_fd_sc_mcu7t5v0__fillcap_32 VDD VSS
.ends

* Black-box entry subcircuit for gf180mcu_fd_sc_mcu7t5v0__clkbuf_1 abstract view
.subckt gf180mcu_fd_sc_mcu7t5v0__clkbuf_1 I Z VDD VSS
.ends

* Black-box entry subcircuit for gf180mcu_fd_sc_mcu7t5v0__dlyb_1 abstract view
.subckt gf180mcu_fd_sc_mcu7t5v0__dlyb_1 I Z VDD VSS
.ends

* Black-box entry subcircuit for gf180mcu_fd_sc_mcu7t5v0__clkinv_1 abstract view
.subckt gf180mcu_fd_sc_mcu7t5v0__clkinv_1 I ZN VDD VSS
.ends

* Black-box entry subcircuit for gf180mcu_fd_sc_mcu7t5v0__nor2_1 abstract view
.subckt gf180mcu_fd_sc_mcu7t5v0__nor2_1 A1 A2 ZN VDD VSS
.ends

* Black-box entry subcircuit for gf180mcu_fd_sc_mcu7t5v0__aoi21_1 abstract view
.subckt gf180mcu_fd_sc_mcu7t5v0__aoi21_1 A1 A2 B ZN VDD VSS
.ends

* Black-box entry subcircuit for gf180mcu_fd_sc_mcu7t5v0__xnor2_1 abstract view
.subckt gf180mcu_fd_sc_mcu7t5v0__xnor2_1 A1 A2 ZN VDD VSS
.ends

* Black-box entry subcircuit for gf180mcu_fd_sc_mcu7t5v0__dffq_1 abstract view
.subckt gf180mcu_fd_sc_mcu7t5v0__dffq_1 D CLK Q VDD VSS
.ends

* Black-box entry subcircuit for gf180mcu_fd_sc_mcu7t5v0__latrnq_1 abstract view
.subckt gf180mcu_fd_sc_mcu7t5v0__latrnq_1 D E RN Q VDD VSS
.ends

* Black-box entry subcircuit for gf180mcu_fd_sc_mcu7t5v0__inv_1 abstract view
.subckt gf180mcu_fd_sc_mcu7t5v0__inv_1 I ZN VDD VSS
.ends

* Black-box entry subcircuit for gf180mcu_fd_sc_mcu7t5v0__nand3_2 abstract view
.subckt gf180mcu_fd_sc_mcu7t5v0__nand3_2 A1 A2 A3 ZN VDD VSS
.ends

* Black-box entry subcircuit for gf180mcu_fd_sc_mcu7t5v0__clkbuf_2 abstract view
.subckt gf180mcu_fd_sc_mcu7t5v0__clkbuf_2 I Z VDD VSS
.ends

* Black-box entry subcircuit for gf180mcu_fd_sc_mcu7t5v0__clkbuf_3 abstract view
.subckt gf180mcu_fd_sc_mcu7t5v0__clkbuf_3 I Z VDD VSS
.ends

* Black-box entry subcircuit for gf180mcu_fd_sc_mcu7t5v0__endcap abstract view
.subckt gf180mcu_fd_sc_mcu7t5v0__endcap VDD VSS
.ends

* Black-box entry subcircuit for gf180mcu_fd_sc_mcu7t5v0__xnor3_1 abstract view
.subckt gf180mcu_fd_sc_mcu7t5v0__xnor3_1 A1 A2 A3 ZN VDD VSS
.ends

* Black-box entry subcircuit for gf180mcu_fd_sc_mcu7t5v0__dlyc_1 abstract view
.subckt gf180mcu_fd_sc_mcu7t5v0__dlyc_1 I Z VDD VSS
.ends

* Black-box entry subcircuit for gf180mcu_fd_sc_mcu7t5v0__oai31_1 abstract view
.subckt gf180mcu_fd_sc_mcu7t5v0__oai31_1 A1 A2 A3 B ZN VDD VSS
.ends

* Black-box entry subcircuit for gf180mcu_fd_sc_mcu7t5v0__nor4_2 abstract view
.subckt gf180mcu_fd_sc_mcu7t5v0__nor4_2 A1 A2 A3 A4 ZN VDD VSS
.ends

* Black-box entry subcircuit for gf180mcu_fd_sc_mcu7t5v0__nand4_2 abstract view
.subckt gf180mcu_fd_sc_mcu7t5v0__nand4_2 A1 A2 A3 A4 ZN VDD VSS
.ends

* Black-box entry subcircuit for gf180mcu_fd_sc_mcu7t5v0__nand3_1 abstract view
.subckt gf180mcu_fd_sc_mcu7t5v0__nand3_1 A1 A2 A3 ZN VDD VSS
.ends

* Black-box entry subcircuit for gf180mcu_fd_sc_mcu7t5v0__oai22_1 abstract view
.subckt gf180mcu_fd_sc_mcu7t5v0__oai22_1 A1 A2 B1 B2 ZN VDD VSS
.ends

* Black-box entry subcircuit for gf180mcu_fd_sc_mcu7t5v0__xor2_1 abstract view
.subckt gf180mcu_fd_sc_mcu7t5v0__xor2_1 A1 A2 Z VDD VSS
.ends

* Black-box entry subcircuit for gf180mcu_fd_sc_mcu7t5v0__aoi211_1 abstract view
.subckt gf180mcu_fd_sc_mcu7t5v0__aoi211_1 A1 A2 B C ZN VDD VSS
.ends

* Black-box entry subcircuit for gf180mcu_fd_sc_mcu7t5v0__xor3_2 abstract view
.subckt gf180mcu_fd_sc_mcu7t5v0__xor3_2 A1 A2 A3 Z VDD VSS
.ends

* Black-box entry subcircuit for gf180mcu_fd_sc_mcu7t5v0__mux2_2 abstract view
.subckt gf180mcu_fd_sc_mcu7t5v0__mux2_2 I0 I1 S Z VDD VSS
.ends

* Black-box entry subcircuit for gf180mcu_fd_sc_mcu7t5v0__oai32_1 abstract view
.subckt gf180mcu_fd_sc_mcu7t5v0__oai32_1 A1 A2 A3 B1 B2 ZN VDD VSS
.ends

* Black-box entry subcircuit for gf180mcu_fd_sc_mcu7t5v0__aoi222_1 abstract view
.subckt gf180mcu_fd_sc_mcu7t5v0__aoi222_1 A1 A2 B1 B2 C1 C2 ZN VDD VSS
.ends

* Black-box entry subcircuit for gf180mcu_fd_sc_mcu7t5v0__aoi21_2 abstract view
.subckt gf180mcu_fd_sc_mcu7t5v0__aoi21_2 A1 A2 B ZN VDD VSS
.ends

* Black-box entry subcircuit for gf180mcu_fd_sc_mcu7t5v0__and3_1 abstract view
.subckt gf180mcu_fd_sc_mcu7t5v0__and3_1 A1 A2 A3 Z VDD VSS
.ends

* Black-box entry subcircuit for gf180mcu_fd_sc_mcu7t5v0__oai21_2 abstract view
.subckt gf180mcu_fd_sc_mcu7t5v0__oai21_2 A1 A2 B ZN VDD VSS
.ends

* Black-box entry subcircuit for gf180mcu_fd_sc_mcu7t5v0__aoi22_2 abstract view
.subckt gf180mcu_fd_sc_mcu7t5v0__aoi22_2 A1 A2 B1 B2 ZN VDD VSS
.ends

* Black-box entry subcircuit for gf180mcu_fd_sc_mcu7t5v0__aoi211_2 abstract view
.subckt gf180mcu_fd_sc_mcu7t5v0__aoi211_2 A1 A2 B C ZN VDD VSS
.ends

* Black-box entry subcircuit for gf180mcu_fd_sc_mcu7t5v0__or4_1 abstract view
.subckt gf180mcu_fd_sc_mcu7t5v0__or4_1 A1 A2 A3 A4 Z VDD VSS
.ends

* Black-box entry subcircuit for gf180mcu_fd_sc_mcu7t5v0__nand4_1 abstract view
.subckt gf180mcu_fd_sc_mcu7t5v0__nand4_1 A1 A2 A3 A4 ZN VDD VSS
.ends

* Black-box entry subcircuit for gf180mcu_fd_sc_mcu7t5v0__aoi22_1 abstract view
.subckt gf180mcu_fd_sc_mcu7t5v0__aoi22_1 A1 A2 B1 B2 ZN VDD VSS
.ends

* Black-box entry subcircuit for gf180mcu_fd_sc_mcu7t5v0__nor3_2 abstract view
.subckt gf180mcu_fd_sc_mcu7t5v0__nor3_2 A1 A2 A3 ZN VDD VSS
.ends

* Black-box entry subcircuit for gf180mcu_fd_sc_mcu7t5v0__oai211_1 abstract view
.subckt gf180mcu_fd_sc_mcu7t5v0__oai211_1 A1 A2 B C ZN VDD VSS
.ends

* Black-box entry subcircuit for gf180mcu_fd_sc_mcu7t5v0__and4_1 abstract view
.subckt gf180mcu_fd_sc_mcu7t5v0__and4_1 A1 A2 A3 A4 Z VDD VSS
.ends

* Black-box entry subcircuit for gf180mcu_fd_sc_mcu7t5v0__nor3_1 abstract view
.subckt gf180mcu_fd_sc_mcu7t5v0__nor3_1 A1 A2 A3 ZN VDD VSS
.ends

* Black-box entry subcircuit for gf180mcu_fd_sc_mcu7t5v0__oai211_2 abstract view
.subckt gf180mcu_fd_sc_mcu7t5v0__oai211_2 A1 A2 B C ZN VDD VSS
.ends

* Black-box entry subcircuit for gf180mcu_fd_sc_mcu7t5v0__or3_1 abstract view
.subckt gf180mcu_fd_sc_mcu7t5v0__or3_1 A1 A2 A3 Z VDD VSS
.ends

* Black-box entry subcircuit for gf180mcu_fd_sc_mcu7t5v0__oai221_1 abstract view
.subckt gf180mcu_fd_sc_mcu7t5v0__oai221_1 A1 A2 B1 B2 C ZN VDD VSS
.ends

* Black-box entry subcircuit for gf180mcu_fd_sc_mcu7t5v0__aoi221_1 abstract view
.subckt gf180mcu_fd_sc_mcu7t5v0__aoi221_1 A1 A2 B1 B2 C ZN VDD VSS
.ends

* Black-box entry subcircuit for gf180mcu_fd_sc_mcu7t5v0__clkinv_2 abstract view
.subckt gf180mcu_fd_sc_mcu7t5v0__clkinv_2 I ZN VDD VSS
.ends

* Black-box entry subcircuit for gf180mcu_fd_sc_mcu7t5v0__nor4_1 abstract view
.subckt gf180mcu_fd_sc_mcu7t5v0__nor4_1 A1 A2 A3 A4 ZN VDD VSS
.ends

* Black-box entry subcircuit for gf180mcu_fd_sc_mcu7t5v0__oai22_2 abstract view
.subckt gf180mcu_fd_sc_mcu7t5v0__oai22_2 A1 A2 B1 B2 ZN VDD VSS
.ends

* Black-box entry subcircuit for gf180mcu_fd_sc_mcu7t5v0__aoi222_4 abstract view
.subckt gf180mcu_fd_sc_mcu7t5v0__aoi222_4 A1 A2 B1 B2 C1 C2 ZN VDD VSS
.ends

* Black-box entry subcircuit for gf180mcu_fd_sc_mcu7t5v0__oai32_2 abstract view
.subckt gf180mcu_fd_sc_mcu7t5v0__oai32_2 A1 A2 A3 B1 B2 ZN VDD VSS
.ends

* Black-box entry subcircuit for gf180mcu_fd_sc_mcu7t5v0__dlyd_1 abstract view
.subckt gf180mcu_fd_sc_mcu7t5v0__dlyd_1 I Z VDD VSS
.ends

* Black-box entry subcircuit for gf180mcu_fd_sc_mcu7t5v0__aoi221_4 abstract view
.subckt gf180mcu_fd_sc_mcu7t5v0__aoi221_4 A1 A2 B1 B2 C ZN VDD VSS
.ends

* Black-box entry subcircuit for gf180mcu_fd_sc_mcu7t5v0__nor2_2 abstract view
.subckt gf180mcu_fd_sc_mcu7t5v0__nor2_2 A1 A2 ZN VDD VSS
.ends

* Black-box entry subcircuit for gf180mcu_fd_sc_mcu7t5v0__oai221_2 abstract view
.subckt gf180mcu_fd_sc_mcu7t5v0__oai221_2 A1 A2 B1 B2 C ZN VDD VSS
.ends

* Black-box entry subcircuit for gf180mcu_fd_sc_mcu7t5v0__nor3_4 abstract view
.subckt gf180mcu_fd_sc_mcu7t5v0__nor3_4 A1 A2 A3 ZN VDD VSS
.ends

* Black-box entry subcircuit for gf180mcu_fd_sc_mcu7t5v0__nand2_2 abstract view
.subckt gf180mcu_fd_sc_mcu7t5v0__nand2_2 A1 A2 ZN VDD VSS
.ends

* Black-box entry subcircuit for gf180mcu_fd_sc_mcu7t5v0__xor2_2 abstract view
.subckt gf180mcu_fd_sc_mcu7t5v0__xor2_2 A1 A2 Z VDD VSS
.ends

* Black-box entry subcircuit for gf180mcu_fd_sc_mcu7t5v0__nor4_4 abstract view
.subckt gf180mcu_fd_sc_mcu7t5v0__nor4_4 A1 A2 A3 A4 ZN VDD VSS
.ends

* Black-box entry subcircuit for gf180mcu_fd_sc_mcu7t5v0__oai21_4 abstract view
.subckt gf180mcu_fd_sc_mcu7t5v0__oai21_4 A1 A2 B ZN VDD VSS
.ends

* Black-box entry subcircuit for gf180mcu_fd_sc_mcu7t5v0__aoi211_4 abstract view
.subckt gf180mcu_fd_sc_mcu7t5v0__aoi211_4 A1 A2 B C ZN VDD VSS
.ends

* Black-box entry subcircuit for gf180mcu_fd_sc_mcu7t5v0__nand4_4 abstract view
.subckt gf180mcu_fd_sc_mcu7t5v0__nand4_4 A1 A2 A3 A4 ZN VDD VSS
.ends

.subckt suma_mult_TOP X[0] X[10] X[11] X[12] X[13] X[14] X[15] X[16] X[17] X[18] X[19]
+ X[1] X[20] X[21] X[22] X[23] X[24] X[25] X[26] X[27] X[28] X[29] X[2] X[30] X[31]
+ X[3] X[4] X[5] X[6] X[7] X[8] X[9] b clk n[0] n[10] n[11] n[12] n[13] n[14] n[15]
+ n[1] n[2] n[3] n[4] n[5] n[6] n[7] n[8] n[9] start vdd vss
XFILLER_95_851 vdd vss gf180mcu_fd_sc_mcu7t5v0__fill_1
XANTENNA__3140__A1 _1812_ vdd vss gf180mcu_fd_sc_mcu7t5v0__antenna
X_3155_ _0274_ _0275_ _0299_ vdd vss gf180mcu_fd_sc_mcu7t5v0__and2_1
XFILLER_82_534 vdd vss gf180mcu_fd_sc_mcu7t5v0__fillcap_64
XFILLER_27_428 vdd vss gf180mcu_fd_sc_mcu7t5v0__fill_1
XANTENNA_fanout56_I net60 vdd vss gf180mcu_fd_sc_mcu7t5v0__antenna
X_3086_ _2111_ Control_Unit.T\[9\] _2050_ _0230_ vdd vss gf180mcu_fd_sc_mcu7t5v0__xor3_1
XFILLER_54_247 vdd vss gf180mcu_fd_sc_mcu7t5v0__fill_1
XFILLER_39_1101 vdd vss gf180mcu_fd_sc_mcu7t5v0__fillcap_4
XFILLER_23_612 vdd vss gf180mcu_fd_sc_mcu7t5v0__fillcap_4
XFILLER_23_645 vdd vss gf180mcu_fd_sc_mcu7t5v0__fill_2
XFILLER_23_634 vdd vss gf180mcu_fd_sc_mcu7t5v0__fillcap_4
XFILLER_1_1490 vdd vss gf180mcu_fd_sc_mcu7t5v0__fill_1
XFILLER_108_1560 vdd vss gf180mcu_fd_sc_mcu7t5v0__fillcap_16
XFILLER_52_1312 vdd vss gf180mcu_fd_sc_mcu7t5v0__fill_1
X_3988_ _1033_ _1056_ vdd vss gf180mcu_fd_sc_mcu7t5v0__buf_1
XFILLER_22_155 vdd vss gf180mcu_fd_sc_mcu7t5v0__fillcap_4
XFILLER_11_829 vdd vss gf180mcu_fd_sc_mcu7t5v0__fill_2
X_2939_ _2265_ _2243_ _2266_ _2267_ vdd vss gf180mcu_fd_sc_mcu7t5v0__xor3_1
XFILLER_10_339 vdd vss gf180mcu_fd_sc_mcu7t5v0__fillcap_4
XFILLER_104_1457 vdd vss gf180mcu_fd_sc_mcu7t5v0__fillcap_64
XANTENNA__2954__A1 _2063_ vdd vss gf180mcu_fd_sc_mcu7t5v0__antenna
XFILLER_87_1419 vdd vss gf180mcu_fd_sc_mcu7t5v0__fill_1
XFILLER_123_208 vdd vss gf180mcu_fd_sc_mcu7t5v0__fillcap_4
XFILLER_102_1170 vdd vss gf180mcu_fd_sc_mcu7t5v0__fill_1
XFILLER_11_1053 vdd vss gf180mcu_fd_sc_mcu7t5v0__fillcap_8
X_4609_ _0490_ _1624_ _1625_ vdd vss gf180mcu_fd_sc_mcu7t5v0__nand2_1
XFILLER_117_783 vdd vss gf180mcu_fd_sc_mcu7t5v0__fillcap_64
XFILLER_11_1097 vdd vss gf180mcu_fd_sc_mcu7t5v0__fill_2
XFILLER_117_66 vdd vss gf180mcu_fd_sc_mcu7t5v0__fillcap_4
XFILLER_105_989 vdd vss gf180mcu_fd_sc_mcu7t5v0__fillcap_4
XFILLER_89_144 vdd vss gf180mcu_fd_sc_mcu7t5v0__fillcap_64
XFILLER_78_818 vdd vss gf180mcu_fd_sc_mcu7t5v0__fillcap_64
XFILLER_2_549 vdd vss gf180mcu_fd_sc_mcu7t5v0__fill_2
XFILLER_137_1277 vdd vss gf180mcu_fd_sc_mcu7t5v0__fill_1
XANTENNA__4459__A1 _2046_ vdd vss gf180mcu_fd_sc_mcu7t5v0__antenna
XFILLER_58_531 vdd vss gf180mcu_fd_sc_mcu7t5v0__fill_1
XANTENNA__3131__A1 _2255_ vdd vss gf180mcu_fd_sc_mcu7t5v0__antenna
XTAP_3213 vdd vss gf180mcu_fd_sc_mcu7t5v0__filltie
XTAP_3202 vdd vss gf180mcu_fd_sc_mcu7t5v0__filltie
XFILLER_115_1564 vdd vss gf180mcu_fd_sc_mcu7t5v0__fillcap_16
XFILLER_85_350 vdd vss gf180mcu_fd_sc_mcu7t5v0__fillcap_4
XTAP_3246 vdd vss gf180mcu_fd_sc_mcu7t5v0__filltie
XTAP_3235 vdd vss gf180mcu_fd_sc_mcu7t5v0__filltie
XTAP_3224 vdd vss gf180mcu_fd_sc_mcu7t5v0__filltie
XTAP_2501 vdd vss gf180mcu_fd_sc_mcu7t5v0__filltie
XFILLER_18_439 vdd vss gf180mcu_fd_sc_mcu7t5v0__fill_2
XTAP_3279 vdd vss gf180mcu_fd_sc_mcu7t5v0__filltie
XTAP_3268 vdd vss gf180mcu_fd_sc_mcu7t5v0__filltie
XTAP_3257 vdd vss gf180mcu_fd_sc_mcu7t5v0__filltie
XTAP_2545 vdd vss gf180mcu_fd_sc_mcu7t5v0__filltie
XTAP_2534 vdd vss gf180mcu_fd_sc_mcu7t5v0__filltie
XTAP_2523 vdd vss gf180mcu_fd_sc_mcu7t5v0__filltie
XTAP_2512 vdd vss gf180mcu_fd_sc_mcu7t5v0__filltie
XFILLER_73_567 vdd vss gf180mcu_fd_sc_mcu7t5v0__fill_1
XTAP_1800 vdd vss gf180mcu_fd_sc_mcu7t5v0__filltie
XANTENNA__2863__I _2045_ vdd vss gf180mcu_fd_sc_mcu7t5v0__antenna
XFILLER_27_973 vdd vss gf180mcu_fd_sc_mcu7t5v0__fill_2
XFILLER_27_951 vdd vss gf180mcu_fd_sc_mcu7t5v0__fill_2
XFILLER_2_1265 vdd vss gf180mcu_fd_sc_mcu7t5v0__fill_1
XANTENNA_output37_I net37 vdd vss gf180mcu_fd_sc_mcu7t5v0__antenna
XTAP_2578 vdd vss gf180mcu_fd_sc_mcu7t5v0__filltie
XTAP_2567 vdd vss gf180mcu_fd_sc_mcu7t5v0__filltie
XTAP_2556 vdd vss gf180mcu_fd_sc_mcu7t5v0__filltie
XTAP_1833 vdd vss gf180mcu_fd_sc_mcu7t5v0__filltie
XTAP_1822 vdd vss gf180mcu_fd_sc_mcu7t5v0__filltie
XTAP_1811 vdd vss gf180mcu_fd_sc_mcu7t5v0__filltie
XTAP_2589 vdd vss gf180mcu_fd_sc_mcu7t5v0__filltie
XTAP_1866 vdd vss gf180mcu_fd_sc_mcu7t5v0__filltie
XTAP_1855 vdd vss gf180mcu_fd_sc_mcu7t5v0__filltie
XTAP_1844 vdd vss gf180mcu_fd_sc_mcu7t5v0__filltie
XANTENNA__2642__B1 _1887_ vdd vss gf180mcu_fd_sc_mcu7t5v0__antenna
XFILLER_144_1259 vdd vss gf180mcu_fd_sc_mcu7t5v0__fill_1
XTAP_1899 vdd vss gf180mcu_fd_sc_mcu7t5v0__filltie
XTAP_1888 vdd vss gf180mcu_fd_sc_mcu7t5v0__filltie
XTAP_1877 vdd vss gf180mcu_fd_sc_mcu7t5v0__filltie
XFILLER_42_976 vdd vss gf180mcu_fd_sc_mcu7t5v0__fill_2
XFILLER_13_144 vdd vss gf180mcu_fd_sc_mcu7t5v0__fill_2
XFILLER_41_486 vdd vss gf180mcu_fd_sc_mcu7t5v0__fillcap_4
XFILLER_10_851 vdd vss gf180mcu_fd_sc_mcu7t5v0__fill_1
XFILLER_115_709 vdd vss gf180mcu_fd_sc_mcu7t5v0__fill_1
XFILLER_5_343 vdd vss gf180mcu_fd_sc_mcu7t5v0__fill_1
XFILLER_5_354 vdd vss gf180mcu_fd_sc_mcu7t5v0__fill_1
XFILLER_5_387 vdd vss gf180mcu_fd_sc_mcu7t5v0__fillcap_4
XFILLER_9_1419 vdd vss gf180mcu_fd_sc_mcu7t5v0__fill_1
XFILLER_77_851 vdd vss gf180mcu_fd_sc_mcu7t5v0__fill_1
XFILLER_49_531 vdd vss gf180mcu_fd_sc_mcu7t5v0__fill_2
XFILLER_42_1525 vdd vss gf180mcu_fd_sc_mcu7t5v0__fill_1
XFILLER_67_70 vdd vss gf180mcu_fd_sc_mcu7t5v0__fill_1
XFILLER_49_553 vdd vss gf180mcu_fd_sc_mcu7t5v0__fillcap_8
XFILLER_27_1093 vdd vss gf180mcu_fd_sc_mcu7t5v0__fill_2
XFILLER_64_534 vdd vss gf180mcu_fd_sc_mcu7t5v0__fillcap_64
XANTENNA__3673__A2 _0762_ vdd vss gf180mcu_fd_sc_mcu7t5v0__antenna
XFILLER_36_236 vdd vss gf180mcu_fd_sc_mcu7t5v0__fillcap_8
XFILLER_18_973 vdd vss gf180mcu_fd_sc_mcu7t5v0__fill_2
XANTENNA__4622__A1 Control_Unit.C\[31\] vdd vss gf180mcu_fd_sc_mcu7t5v0__antenna
XFILLER_18_984 vdd vss gf180mcu_fd_sc_mcu7t5v0__fillcap_4
XFILLER_60_740 vdd vss gf180mcu_fd_sc_mcu7t5v0__fillcap_4
XFILLER_32_442 vdd vss gf180mcu_fd_sc_mcu7t5v0__fill_2
X_3911_ _1803_ _0557_ _0983_ vdd vss gf180mcu_fd_sc_mcu7t5v0__or2_1
XFILLER_71_1209 vdd vss gf180mcu_fd_sc_mcu7t5v0__fillcap_64
X_3842_ Control_Unit.Q\[29\] _0918_ _0919_ _0920_ vdd vss gf180mcu_fd_sc_mcu7t5v0__oai21_1
XFILLER_80_2 vdd vss gf180mcu_fd_sc_mcu7t5v0__fillcap_32
XFILLER_34_1031 vdd vss gf180mcu_fd_sc_mcu7t5v0__fillcap_16
X_3773_ _0839_ _0845_ _0855_ _0856_ vdd vss gf180mcu_fd_sc_mcu7t5v0__oai21_1
XANTENNA__2936__A1 _2254_ vdd vss gf180mcu_fd_sc_mcu7t5v0__antenna
XFILLER_121_1067 vdd vss gf180mcu_fd_sc_mcu7t5v0__fillcap_64
XFILLER_34_1086 vdd vss gf180mcu_fd_sc_mcu7t5v0__fill_2
X_2724_ _2049_ _2052_ _2048_ _2053_ vdd vss gf180mcu_fd_sc_mcu7t5v0__oai21_1
XFILLER_8_181 vdd vss gf180mcu_fd_sc_mcu7t5v0__fill_1
XFILLER_105_208 vdd vss gf180mcu_fd_sc_mcu7t5v0__fillcap_4
XFILLER_103_1490 vdd vss gf180mcu_fd_sc_mcu7t5v0__fill_1
XFILLER_69_1138 vdd vss gf180mcu_fd_sc_mcu7t5v0__fillcap_64
X_2655_ Control_Unit.C\[23\] _1984_ vdd vss gf180mcu_fd_sc_mcu7t5v0__clkbuf_1
XFILLER_8_192 vdd vss gf180mcu_fd_sc_mcu7t5v0__fill_2
X_4325_ _1358_ _1366_ _1367_ vdd vss gf180mcu_fd_sc_mcu7t5v0__or2_1
X_2586_ _1914_ _1915_ vdd vss gf180mcu_fd_sc_mcu7t5v0__clkbuf_1
XANTENNA__3361__A1 _0442_ vdd vss gf180mcu_fd_sc_mcu7t5v0__antenna
Xfanout116 net117 net116 vdd vss gf180mcu_fd_sc_mcu7t5v0__dlyb_1
Xfanout105 net108 net105 vdd vss gf180mcu_fd_sc_mcu7t5v0__dlyb_1
XFILLER_101_425 vdd vss gf180mcu_fd_sc_mcu7t5v0__fill_1
X_4256_ _1172_ _1308_ vdd vss gf180mcu_fd_sc_mcu7t5v0__clkinv_1
XFILLER_80_1095 vdd vss gf180mcu_fd_sc_mcu7t5v0__fillcap_4
XFILLER_67_350 vdd vss gf180mcu_fd_sc_mcu7t5v0__fillcap_4
X_4187_ _1242_ _1244_ _1246_ vdd vss gf180mcu_fd_sc_mcu7t5v0__nand2_1
XFILLER_41_1035 vdd vss gf180mcu_fd_sc_mcu7t5v0__fill_2
X_3207_ _0319_ _0349_ _1881_ _0350_ vdd vss gf180mcu_fd_sc_mcu7t5v0__xor3_1
X_3138_ _1801_ _0282_ vdd vss gf180mcu_fd_sc_mcu7t5v0__buf_1
XFILLER_110_1450 vdd vss gf180mcu_fd_sc_mcu7t5v0__fillcap_4
XFILLER_83_854 vdd vss gf180mcu_fd_sc_mcu7t5v0__fillcap_64
XFILLER_55_567 vdd vss gf180mcu_fd_sc_mcu7t5v0__fill_1
XFILLER_58_1521 vdd vss gf180mcu_fd_sc_mcu7t5v0__fillcap_4
XTAP_1129 vdd vss gf180mcu_fd_sc_mcu7t5v0__filltie
XTAP_1118 vdd vss gf180mcu_fd_sc_mcu7t5v0__filltie
XTAP_1107 vdd vss gf180mcu_fd_sc_mcu7t5v0__filltie
XFILLER_27_269 vdd vss gf180mcu_fd_sc_mcu7t5v0__fill_1
X_3069_ Control_Unit.T\[11\] _0213_ vdd vss gf180mcu_fd_sc_mcu7t5v0__clkbuf_1
XFILLER_24_910 vdd vss gf180mcu_fd_sc_mcu7t5v0__fill_2
XFILLER_58_1576 vdd vss gf180mcu_fd_sc_mcu7t5v0__fillcap_4
XFILLER_50_250 vdd vss gf180mcu_fd_sc_mcu7t5v0__fillcap_64
XFILLER_7_608 vdd vss gf180mcu_fd_sc_mcu7t5v0__fill_2
XFILLER_3_836 vdd vss gf180mcu_fd_sc_mcu7t5v0__fillcap_4
XFILLER_3_869 vdd vss gf180mcu_fd_sc_mcu7t5v0__fill_2
XFILLER_24_1211 vdd vss gf180mcu_fd_sc_mcu7t5v0__fill_2
XFILLER_59_851 vdd vss gf180mcu_fd_sc_mcu7t5v0__fill_1
XFILLER_24_1244 vdd vss gf180mcu_fd_sc_mcu7t5v0__fill_1
XANTENNA__3104__A1 _2070_ vdd vss gf180mcu_fd_sc_mcu7t5v0__antenna
XFILLER_19_704 vdd vss gf180mcu_fd_sc_mcu7t5v0__fill_2
XFILLER_19_715 vdd vss gf180mcu_fd_sc_mcu7t5v0__fillcap_16
XTAP_3021 vdd vss gf180mcu_fd_sc_mcu7t5v0__filltie
XTAP_3010 vdd vss gf180mcu_fd_sc_mcu7t5v0__filltie
XFILLER_98_1312 vdd vss gf180mcu_fd_sc_mcu7t5v0__fill_1
XFILLER_46_534 vdd vss gf180mcu_fd_sc_mcu7t5v0__fill_1
XFILLER_46_512 vdd vss gf180mcu_fd_sc_mcu7t5v0__fill_1
XTAP_3054 vdd vss gf180mcu_fd_sc_mcu7t5v0__filltie
XTAP_3043 vdd vss gf180mcu_fd_sc_mcu7t5v0__filltie
XTAP_3032 vdd vss gf180mcu_fd_sc_mcu7t5v0__filltie
XTAP_2320 vdd vss gf180mcu_fd_sc_mcu7t5v0__filltie
XFILLER_46_545 vdd vss gf180mcu_fd_sc_mcu7t5v0__fill_1
XFILLER_41_1580 vdd vss gf180mcu_fd_sc_mcu7t5v0__fill_1
XFILLER_37_73 vdd vss gf180mcu_fd_sc_mcu7t5v0__fillcap_64
XFILLER_2_1040 vdd vss gf180mcu_fd_sc_mcu7t5v0__fill_2
XFILLER_18_236 vdd vss gf180mcu_fd_sc_mcu7t5v0__fill_2
XTAP_3098 vdd vss gf180mcu_fd_sc_mcu7t5v0__filltie
XTAP_3087 vdd vss gf180mcu_fd_sc_mcu7t5v0__filltie
XTAP_3076 vdd vss gf180mcu_fd_sc_mcu7t5v0__filltie
XTAP_3065 vdd vss gf180mcu_fd_sc_mcu7t5v0__filltie
XTAP_2353 vdd vss gf180mcu_fd_sc_mcu7t5v0__filltie
XTAP_2342 vdd vss gf180mcu_fd_sc_mcu7t5v0__filltie
XTAP_2331 vdd vss gf180mcu_fd_sc_mcu7t5v0__filltie
XFILLER_34_729 vdd vss gf180mcu_fd_sc_mcu7t5v0__fill_2
XTAP_2386 vdd vss gf180mcu_fd_sc_mcu7t5v0__filltie
XTAP_2375 vdd vss gf180mcu_fd_sc_mcu7t5v0__filltie
XTAP_2364 vdd vss gf180mcu_fd_sc_mcu7t5v0__filltie
XTAP_1630 vdd vss gf180mcu_fd_sc_mcu7t5v0__filltie
XTAP_1641 vdd vss gf180mcu_fd_sc_mcu7t5v0__filltie
XFILLER_26_280 vdd vss gf180mcu_fd_sc_mcu7t5v0__fillcap_8
XFILLER_15_932 vdd vss gf180mcu_fd_sc_mcu7t5v0__fill_2
XFILLER_18_1004 vdd vss gf180mcu_fd_sc_mcu7t5v0__fill_1
XTAP_2397 vdd vss gf180mcu_fd_sc_mcu7t5v0__filltie
XTAP_1685 vdd vss gf180mcu_fd_sc_mcu7t5v0__filltie
XTAP_1674 vdd vss gf180mcu_fd_sc_mcu7t5v0__filltie
XTAP_1663 vdd vss gf180mcu_fd_sc_mcu7t5v0__filltie
XTAP_1652 vdd vss gf180mcu_fd_sc_mcu7t5v0__filltie
XFILLER_57_1064 vdd vss gf180mcu_fd_sc_mcu7t5v0__fill_1
XFILLER_15_965 vdd vss gf180mcu_fd_sc_mcu7t5v0__fill_2
XFILLER_18_1015 vdd vss gf180mcu_fd_sc_mcu7t5v0__fill_2
XTAP_1696 vdd vss gf180mcu_fd_sc_mcu7t5v0__filltie
XFILLER_41_283 vdd vss gf180mcu_fd_sc_mcu7t5v0__fill_1
XFILLER_30_957 vdd vss gf180mcu_fd_sc_mcu7t5v0__fill_1
XFILLER_35_1351 vdd vss gf180mcu_fd_sc_mcu7t5v0__fillcap_64
XANTENNA__2918__A1 _1913_ vdd vss gf180mcu_fd_sc_mcu7t5v0__antenna
XFILLER_10_670 vdd vss gf180mcu_fd_sc_mcu7t5v0__fill_1
XFILLER_128_889 vdd vss gf180mcu_fd_sc_mcu7t5v0__fillcap_64
XANTENNA__2394__A2 _1715_ vdd vss gf180mcu_fd_sc_mcu7t5v0__antenna
XANTENNA__3591__A1 _0683_ vdd vss gf180mcu_fd_sc_mcu7t5v0__antenna
XFILLER_142_314 vdd vss gf180mcu_fd_sc_mcu7t5v0__fillcap_4
XANTENNA_fanout106_I net107 vdd vss gf180mcu_fd_sc_mcu7t5v0__antenna
XFILLER_5_162 vdd vss gf180mcu_fd_sc_mcu7t5v0__fill_2
XFILLER_6_696 vdd vss gf180mcu_fd_sc_mcu7t5v0__fillcap_4
X_2440_ Control_Unit.cont\[3\] _1769_ vdd vss gf180mcu_fd_sc_mcu7t5v0__clkbuf_1
XFILLER_111_712 vdd vss gf180mcu_fd_sc_mcu7t5v0__fillcap_64
XFILLER_64_1024 vdd vss gf180mcu_fd_sc_mcu7t5v0__fillcap_4
X_2371_ net5 _1700_ vdd vss gf180mcu_fd_sc_mcu7t5v0__buf_1
X_4110_ _1171_ _1172_ _1173_ vdd vss gf180mcu_fd_sc_mcu7t5v0__nor2_1
XFILLER_96_456 vdd vss gf180mcu_fd_sc_mcu7t5v0__fillcap_4
XFILLER_49_350 vdd vss gf180mcu_fd_sc_mcu7t5v0__fillcap_4
X_4041_ _2055_ _1105_ _1106_ _1107_ vdd vss gf180mcu_fd_sc_mcu7t5v0__aoi21_1
XFILLER_65_854 vdd vss gf180mcu_fd_sc_mcu7t5v0__fillcap_64
XFILLER_92_673 vdd vss gf180mcu_fd_sc_mcu7t5v0__fill_1
XFILLER_18_770 vdd vss gf180mcu_fd_sc_mcu7t5v0__fillcap_8
XFILLER_75_1131 vdd vss gf180mcu_fd_sc_mcu7t5v0__fillcap_4
XFILLER_36_1126 vdd vss gf180mcu_fd_sc_mcu7t5v0__fill_2
XFILLER_32_250 vdd vss gf180mcu_fd_sc_mcu7t5v0__fillcap_8
XFILLER_21_902 vdd vss gf180mcu_fd_sc_mcu7t5v0__fill_2
XFILLER_33_795 vdd vss gf180mcu_fd_sc_mcu7t5v0__fill_1
XFILLER_32_283 vdd vss gf180mcu_fd_sc_mcu7t5v0__fill_2
XFILLER_21_935 vdd vss gf180mcu_fd_sc_mcu7t5v0__fill_2
XANTENNA__3548__B _0539_ vdd vss gf180mcu_fd_sc_mcu7t5v0__antenna
XFILLER_18_1560 vdd vss gf180mcu_fd_sc_mcu7t5v0__fillcap_16
X_3825_ _0492_ _1996_ _0904_ vdd vss gf180mcu_fd_sc_mcu7t5v0__nand2_1
XFILLER_140_1454 vdd vss gf180mcu_fd_sc_mcu7t5v0__fill_1
XFILLER_14_1457 vdd vss gf180mcu_fd_sc_mcu7t5v0__fillcap_64
X_3756_ _0464_ Control_Unit.C\[24\] Control_Unit.Q\[24\] _0840_ vdd vss gf180mcu_fd_sc_mcu7t5v0__xor3_1
XFILLER_134_815 vdd vss gf180mcu_fd_sc_mcu7t5v0__fill_1
XFILLER_88_1525 vdd vss gf180mcu_fd_sc_mcu7t5v0__fill_1
X_2707_ _1868_ _2036_ vdd vss gf180mcu_fd_sc_mcu7t5v0__buf_1
XFILLER_12_1170 vdd vss gf180mcu_fd_sc_mcu7t5v0__fill_1
X_3687_ _0522_ _0776_ vdd vss gf180mcu_fd_sc_mcu7t5v0__clkbuf_1
XFILLER_82_1102 vdd vss gf180mcu_fd_sc_mcu7t5v0__fillcap_64
X_2638_ _1966_ _1967_ vdd vss gf180mcu_fd_sc_mcu7t5v0__buf_1
XANTENNA__2678__I _2006_ vdd vss gf180mcu_fd_sc_mcu7t5v0__antenna
XANTENNA__3334__A1 _0422_ vdd vss gf180mcu_fd_sc_mcu7t5v0__antenna
X_2569_ _1764_ _1850_ _1854_ _1898_ vdd vss gf180mcu_fd_sc_mcu7t5v0__oai21_1
XFILLER_0_828 vdd vss gf180mcu_fd_sc_mcu7t5v0__fill_2
XANTENNA__2688__A3 _2015_ vdd vss gf180mcu_fd_sc_mcu7t5v0__antenna
XFILLER_138_1383 vdd vss gf180mcu_fd_sc_mcu7t5v0__fill_1
XFILLER_99_283 vdd vss gf180mcu_fd_sc_mcu7t5v0__fill_1
XFILLER_88_957 vdd vss gf180mcu_fd_sc_mcu7t5v0__fill_1
XFILLER_47_1277 vdd vss gf180mcu_fd_sc_mcu7t5v0__fill_1
X_4308_ Control_Unit.Mc _1352_ vdd vss gf180mcu_fd_sc_mcu7t5v0__clkinv_1
XFILLER_114_34 vdd vss gf180mcu_fd_sc_mcu7t5v0__fill_1
XFILLER_64_1580 vdd vss gf180mcu_fd_sc_mcu7t5v0__fill_1
X_4239_ _0814_ _1293_ _1294_ vdd vss gf180mcu_fd_sc_mcu7t5v0__xnor2_1
XFILLER_25_1564 vdd vss gf180mcu_fd_sc_mcu7t5v0__fillcap_16
XFILLER_28_534 vdd vss gf180mcu_fd_sc_mcu7t5v0__fill_1
XFILLER_82_172 vdd vss gf180mcu_fd_sc_mcu7t5v0__fillcap_4
XFILLER_43_548 vdd vss gf180mcu_fd_sc_mcu7t5v0__fill_1
XFILLER_90_37 vdd vss gf180mcu_fd_sc_mcu7t5v0__fillcap_64
XFILLER_19_1335 vdd vss gf180mcu_fd_sc_mcu7t5v0__fillcap_8
XFILLER_70_389 vdd vss gf180mcu_fd_sc_mcu7t5v0__fill_1
XFILLER_54_1237 vdd vss gf180mcu_fd_sc_mcu7t5v0__fillcap_4
XFILLER_51_570 vdd vss gf180mcu_fd_sc_mcu7t5v0__fillcap_64
XFILLER_24_795 vdd vss gf180mcu_fd_sc_mcu7t5v0__fill_2
XFILLER_23_283 vdd vss gf180mcu_fd_sc_mcu7t5v0__fill_1
XFILLER_128_108 vdd vss gf180mcu_fd_sc_mcu7t5v0__fillcap_64
XFILLER_12_957 vdd vss gf180mcu_fd_sc_mcu7t5v0__fill_1
XFILLER_12_968 vdd vss gf180mcu_fd_sc_mcu7t5v0__fill_2
XFILLER_128_2 vdd vss gf180mcu_fd_sc_mcu7t5v0__fillcap_32
XFILLER_124_314 vdd vss gf180mcu_fd_sc_mcu7t5v0__fillcap_4
XFILLER_104_1095 vdd vss gf180mcu_fd_sc_mcu7t5v0__fillcap_4
XFILLER_48_1008 vdd vss gf180mcu_fd_sc_mcu7t5v0__fill_2
XANTENNA__3325__A1 _0445_ vdd vss gf180mcu_fd_sc_mcu7t5v0__antenna
XANTENNA__4289__B _0950_ vdd vss gf180mcu_fd_sc_mcu7t5v0__antenna
XFILLER_140_818 vdd vss gf180mcu_fd_sc_mcu7t5v0__fillcap_64
XFILLER_65_1344 vdd vss gf180mcu_fd_sc_mcu7t5v0__fillcap_4
XFILLER_120_531 vdd vss gf180mcu_fd_sc_mcu7t5v0__fill_1
XFILLER_2_176 vdd vss gf180mcu_fd_sc_mcu7t5v0__fill_1
XFILLER_78_456 vdd vss gf180mcu_fd_sc_mcu7t5v0__fillcap_4
XANTENNA__3628__A2 _0710_ vdd vss gf180mcu_fd_sc_mcu7t5v0__antenna
XFILLER_4_1102 vdd vss gf180mcu_fd_sc_mcu7t5v0__fillcap_16
XFILLER_19_523 vdd vss gf180mcu_fd_sc_mcu7t5v0__fillcap_4
XFILLER_47_854 vdd vss gf180mcu_fd_sc_mcu7t5v0__fill_1
XFILLER_74_673 vdd vss gf180mcu_fd_sc_mcu7t5v0__fill_1
XFILLER_94_1028 vdd vss gf180mcu_fd_sc_mcu7t5v0__fill_1
XTAP_2161 vdd vss gf180mcu_fd_sc_mcu7t5v0__filltie
XTAP_2150 vdd vss gf180mcu_fd_sc_mcu7t5v0__filltie
XTAP_2194 vdd vss gf180mcu_fd_sc_mcu7t5v0__filltie
XTAP_2183 vdd vss gf180mcu_fd_sc_mcu7t5v0__filltie
XTAP_2172 vdd vss gf180mcu_fd_sc_mcu7t5v0__filltie
XFILLER_72_1315 vdd vss gf180mcu_fd_sc_mcu7t5v0__fillcap_64
XTAP_1460 vdd vss gf180mcu_fd_sc_mcu7t5v0__filltie
XFILLER_15_751 vdd vss gf180mcu_fd_sc_mcu7t5v0__fillcap_8
XFILLER_15_740 vdd vss gf180mcu_fd_sc_mcu7t5v0__fill_2
XTAP_1493 vdd vss gf180mcu_fd_sc_mcu7t5v0__filltie
XTAP_1471 vdd vss gf180mcu_fd_sc_mcu7t5v0__filltie
XTAP_1482 vdd vss gf180mcu_fd_sc_mcu7t5v0__filltie
XFILLER_14_250 vdd vss gf180mcu_fd_sc_mcu7t5v0__fill_2
XFILLER_30_743 vdd vss gf180mcu_fd_sc_mcu7t5v0__fill_2
XFILLER_9_66 vdd vss gf180mcu_fd_sc_mcu7t5v0__fillcap_4
X_3610_ _0696_ _0702_ _0703_ _0704_ vdd vss gf180mcu_fd_sc_mcu7t5v0__aoi21_1
X_4590_ _1353_ _1609_ _1610_ vdd vss gf180mcu_fd_sc_mcu7t5v0__nor2_1
XFILLER_127_141 vdd vss gf180mcu_fd_sc_mcu7t5v0__fill_1
XFILLER_122_1173 vdd vss gf180mcu_fd_sc_mcu7t5v0__fillcap_64
XFILLER_116_815 vdd vss gf180mcu_fd_sc_mcu7t5v0__fill_1
XFILLER_31_1056 vdd vss gf180mcu_fd_sc_mcu7t5v0__fill_1
X_3541_ Control_Unit.T\[9\] _2000_ Control_Unit.Q\[9\] _0640_ vdd vss gf180mcu_fd_sc_mcu7t5v0__xor3_1
XFILLER_7_961 vdd vss gf180mcu_fd_sc_mcu7t5v0__fill_2
XANTENNA__3564__A1 _0623_ vdd vss gf180mcu_fd_sc_mcu7t5v0__antenna
XFILLER_11_990 vdd vss gf180mcu_fd_sc_mcu7t5v0__fill_1
XFILLER_143_634 vdd vss gf180mcu_fd_sc_mcu7t5v0__fillcap_4
XFILLER_31_1089 vdd vss gf180mcu_fd_sc_mcu7t5v0__fill_2
XFILLER_31_1067 vdd vss gf180mcu_fd_sc_mcu7t5v0__fill_1
XFILLER_6_460 vdd vss gf180mcu_fd_sc_mcu7t5v0__fill_1
XFILLER_6_471 vdd vss gf180mcu_fd_sc_mcu7t5v0__fill_2
XFILLER_13_1490 vdd vss gf180mcu_fd_sc_mcu7t5v0__fill_1
XFILLER_87_1580 vdd vss gf180mcu_fd_sc_mcu7t5v0__fill_1
XANTENNA__3316__A1 _0400_ vdd vss gf180mcu_fd_sc_mcu7t5v0__antenna
X_3472_ _2015_ _0270_ _0576_ vdd vss gf180mcu_fd_sc_mcu7t5v0__nand2_1
XFILLER_83_1422 vdd vss gf180mcu_fd_sc_mcu7t5v0__fillcap_64
XFILLER_43_2 vdd vss gf180mcu_fd_sc_mcu7t5v0__fillcap_64
X_2423_ _1714_ _1752_ vdd vss gf180mcu_fd_sc_mcu7t5v0__buf_1
X_2354_ _1684_ _0007_ _0004_ vdd vss gf180mcu_fd_sc_mcu7t5v0__nor2_1
XANTENNA__3867__A2 _0937_ vdd vss gf180mcu_fd_sc_mcu7t5v0__antenna
XFILLER_97_776 vdd vss gf180mcu_fd_sc_mcu7t5v0__fillcap_4
XFILLER_133_1280 vdd vss gf180mcu_fd_sc_mcu7t5v0__fillcap_64
XFILLER_38_843 vdd vss gf180mcu_fd_sc_mcu7t5v0__fill_2
X_4024_ _1067_ _1069_ _1091_ vdd vss gf180mcu_fd_sc_mcu7t5v0__nand2_1
XFILLER_93_993 vdd vss gf180mcu_fd_sc_mcu7t5v0__fill_1
XFILLER_20_1450 vdd vss gf180mcu_fd_sc_mcu7t5v0__fillcap_4
XFILLER_0_1522 vdd vss gf180mcu_fd_sc_mcu7t5v0__fillcap_8
XFILLER_64_172 vdd vss gf180mcu_fd_sc_mcu7t5v0__fillcap_4
XFILLER_25_537 vdd vss gf180mcu_fd_sc_mcu7t5v0__fill_2
XFILLER_80_676 vdd vss gf180mcu_fd_sc_mcu7t5v0__fillcap_64