*SPEF "ieee 1481-1999"
*DESIGN "suma_mult_TOP"
*DATE "11:11:11 Fri 11 11, 1111"
*VENDOR "OpenRCX"
*PROGRAM "Parallel Extraction"
*VERSION "1.0"
*DESIGN_FLOW "NAME_SCOPE LOCAL" "PIN_CAP NONE"
*DIVIDER /
*DELIMITER :
*BUS_DELIMITER []
*T_UNIT 1 NS
*C_UNIT 1 PF
*R_UNIT 1 OHM
*L_UNIT 1 HENRY

*NAME_MAP
*1 X[0]
*2 X[10]
*3 X[11]
*4 X[12]
*5 X[13]
*6 X[14]
*7 X[15]
*8 X[16]
*9 X[17]
*10 X[18]
*11 X[19]
*12 X[1]
*13 X[20]
*14 X[21]
*15 X[22]
*16 X[23]
*17 X[24]
*18 X[25]
*19 X[26]
*20 X[27]
*21 X[28]
*22 X[29]
*23 X[2]
*24 X[30]
*25 X[31]
*26 X[3]
*27 X[4]
*28 X[5]
*29 X[6]
*30 X[7]
*31 X[8]
*32 X[9]
*33 b
*34 clk
*35 n[0]
*36 n[10]
*37 n[11]
*38 n[12]
*39 n[13]
*40 n[14]
*41 n[15]
*42 n[1]
*43 n[2]
*44 n[3]
*45 n[4]
*46 n[5]
*47 n[6]
*48 n[7]
*49 n[8]
*50 n[9]
*51 start
*54 Control_Unit\.C\[0\]
*55 Control_Unit\.C\[10\]
*56 Control_Unit\.C\[11\]
*57 Control_Unit\.C\[12\]
*58 Control_Unit\.C\[13\]
*59 Control_Unit\.C\[14\]
*60 Control_Unit\.C\[15\]
*61 Control_Unit\.C\[16\]
*62 Control_Unit\.C\[17\]
*63 Control_Unit\.C\[18\]
*64 Control_Unit\.C\[19\]
*65 Control_Unit\.C\[1\]
*66 Control_Unit\.C\[20\]
*67 Control_Unit\.C\[21\]
*68 Control_Unit\.C\[22\]
*69 Control_Unit\.C\[23\]
*70 Control_Unit\.C\[24\]
*71 Control_Unit\.C\[25\]
*72 Control_Unit\.C\[26\]
*73 Control_Unit\.C\[27\]
*74 Control_Unit\.C\[28\]
*75 Control_Unit\.C\[29\]
*76 Control_Unit\.C\[2\]
*77 Control_Unit\.C\[30\]
*78 Control_Unit\.C\[31\]
*79 Control_Unit\.C\[3\]
*80 Control_Unit\.C\[4\]
*81 Control_Unit\.C\[5\]
*82 Control_Unit\.C\[6\]
*83 Control_Unit\.C\[7\]
*84 Control_Unit\.C\[8\]
*85 Control_Unit\.C\[9\]
*86 Control_Unit\.Mc
*87 Control_Unit\.Mq
*88 Control_Unit\.Mt
*89 Control_Unit\.Mx
*90 Control_Unit\.Q\[0\]
*91 Control_Unit\.Q\[10\]
*92 Control_Unit\.Q\[11\]
*93 Control_Unit\.Q\[12\]
*94 Control_Unit\.Q\[13\]
*95 Control_Unit\.Q\[14\]
*96 Control_Unit\.Q\[15\]
*97 Control_Unit\.Q\[16\]
*98 Control_Unit\.Q\[17\]
*99 Control_Unit\.Q\[18\]
*100 Control_Unit\.Q\[19\]
*101 Control_Unit\.Q\[1\]
*102 Control_Unit\.Q\[20\]
*103 Control_Unit\.Q\[21\]
*104 Control_Unit\.Q\[22\]
*105 Control_Unit\.Q\[23\]
*106 Control_Unit\.Q\[24\]
*107 Control_Unit\.Q\[25\]
*108 Control_Unit\.Q\[26\]
*109 Control_Unit\.Q\[27\]
*110 Control_Unit\.Q\[28\]
*111 Control_Unit\.Q\[29\]
*112 Control_Unit\.Q\[2\]
*113 Control_Unit\.Q\[30\]
*114 Control_Unit\.Q\[31\]
*115 Control_Unit\.Q\[3\]
*116 Control_Unit\.Q\[4\]
*117 Control_Unit\.Q\[5\]
*118 Control_Unit\.Q\[6\]
*119 Control_Unit\.Q\[7\]
*120 Control_Unit\.Q\[8\]
*121 Control_Unit\.Q\[9\]
*122 Control_Unit\.Rc
*123 Control_Unit\.Rcont
*124 Control_Unit\.Rx
*125 Control_Unit\.T\[0\]
*126 Control_Unit\.T\[10\]
*127 Control_Unit\.T\[11\]
*128 Control_Unit\.T\[12\]
*129 Control_Unit\.T\[13\]
*130 Control_Unit\.T\[14\]
*131 Control_Unit\.T\[15\]
*132 Control_Unit\.T\[16\]
*133 Control_Unit\.T\[17\]
*134 Control_Unit\.T\[18\]
*135 Control_Unit\.T\[19\]
*136 Control_Unit\.T\[1\]
*137 Control_Unit\.T\[20\]
*138 Control_Unit\.T\[21\]
*139 Control_Unit\.T\[22\]
*140 Control_Unit\.T\[23\]
*141 Control_Unit\.T\[24\]
*142 Control_Unit\.T\[25\]
*143 Control_Unit\.T\[26\]
*144 Control_Unit\.T\[27\]
*145 Control_Unit\.T\[28\]
*146 Control_Unit\.T\[29\]
*147 Control_Unit\.T\[2\]
*148 Control_Unit\.T\[30\]
*149 Control_Unit\.T\[31\]
*150 Control_Unit\.T\[3\]
*151 Control_Unit\.T\[4\]
*152 Control_Unit\.T\[5\]
*153 Control_Unit\.T\[6\]
*154 Control_Unit\.T\[7\]
*155 Control_Unit\.T\[8\]
*156 Control_Unit\.T\[9\]
*157 Control_Unit\.cont\[0\]
*158 Control_Unit\.cont\[10\]
*159 Control_Unit\.cont\[11\]
*160 Control_Unit\.cont\[12\]
*161 Control_Unit\.cont\[13\]
*162 Control_Unit\.cont\[14\]
*163 Control_Unit\.cont\[15\]
*164 Control_Unit\.cont\[1\]
*165 Control_Unit\.cont\[2\]
*166 Control_Unit\.cont\[3\]
*167 Control_Unit\.cont\[4\]
*168 Control_Unit\.cont\[5\]
*169 Control_Unit\.cont\[6\]
*170 Control_Unit\.cont\[7\]
*171 Control_Unit\.cont\[8\]
*172 Control_Unit\.cont\[9\]
*173 Control_Unit\.futuro\[0\]
*174 Control_Unit\.futuro\[1\]
*175 Control_Unit\.futuro\[2\]
*176 Control_Unit\.presente\[0\]
*177 Control_Unit\.presente\[1\]
*178 Control_Unit\.presente\[2\]
*179 _0000_
*180 _0001_
*181 _0002_
*182 _0003_
*183 _0004_
*184 _0005_
*185 _0006_
*186 _0007_
*187 _0008_
*188 _0009_
*189 _0010_
*190 _0011_
*191 _0012_
*192 _0013_
*193 _0014_
*194 _0015_
*195 _0016_
*196 _0017_
*197 _0018_
*198 _0019_
*199 _0020_
*200 _0021_
*201 _0022_
*202 _0023_
*203 _0024_
*204 _0025_
*205 _0026_
*206 _0027_
*207 _0028_
*208 _0029_
*209 _0030_
*210 _0031_
*211 _0032_
*212 _0033_
*213 _0034_
*214 _0035_
*215 _0036_
*216 _0037_
*217 _0038_
*218 _0039_
*219 _0040_
*220 _0041_
*221 _0042_
*222 _0043_
*223 _0044_
*224 _0045_
*225 _0046_
*226 _0047_
*227 _0048_
*228 _0049_
*229 _0050_
*230 _0051_
*231 _0052_
*232 _0053_
*233 _0054_
*234 _0055_
*235 _0056_
*236 _0057_
*237 _0058_
*238 _0059_
*239 _0060_
*240 _0061_
*241 _0062_
*242 _0063_
*243 _0064_
*244 _0065_
*245 _0066_
*246 _0067_
*247 _0068_
*248 _0069_
*249 _0070_
*250 _0071_
*251 _0072_
*252 _0073_
*253 _0074_
*254 _0075_
*255 _0076_
*256 _0077_
*257 _0078_
*258 _0079_
*259 _0080_
*260 _0081_
*261 _0082_
*262 _0083_
*263 _0084_
*264 _0085_
*265 _0086_
*266 _0087_
*267 _0088_
*268 _0089_
*269 _0090_
*270 _0091_
*271 _0092_
*272 _0093_
*273 _0094_
*274 _0095_
*275 _0096_
*276 _0097_
*277 _0098_
*278 _0099_
*279 _0100_
*280 _0101_
*281 _0102_
*282 _0103_
*283 _0104_
*284 _0105_
*285 _0106_
*286 _0107_
*287 _0108_
*288 _0109_
*289 _0110_
*290 _0111_
*291 _0112_
*292 _0113_
*293 _0114_
*294 _0115_
*295 _0116_
*296 _0117_
*297 _0118_
*298 _0119_
*299 _0120_
*300 _0121_
*301 _0122_
*302 _0123_
*303 _0124_
*304 _0125_
*305 _0126_
*306 _0127_
*307 _0128_
*308 _0129_
*309 _0130_
*310 _0131_
*311 _0132_
*312 _0133_
*313 _0134_
*314 _0135_
*315 _0136_
*316 _0137_
*317 _0138_
*318 _0139_
*319 _0140_
*320 _0141_
*321 _0142_
*322 _0143_
*323 _0144_
*324 _0145_
*325 _0146_
*326 _0147_
*327 _0148_
*328 _0149_
*329 _0150_
*330 _0151_
*331 _0152_
*332 _0153_
*333 _0154_
*334 _0155_
*335 _0156_
*336 _0157_
*337 _0158_
*338 _0159_
*339 _0160_
*340 _0161_
*341 _0162_
*342 _0163_
*343 _0164_
*344 _0165_
*345 _0166_
*346 _0167_
*347 _0168_
*348 _0169_
*349 _0170_
*350 _0171_
*351 _0172_
*352 _0173_
*353 _0174_
*354 _0175_
*355 _0176_
*356 _0177_
*357 _0178_
*358 _0179_
*359 _0180_
*360 _0181_
*361 _0182_
*362 _0183_
*363 _0184_
*364 _0185_
*365 _0186_
*366 _0187_
*367 _0188_
*368 _0189_
*369 _0190_
*370 _0191_
*371 _0192_
*372 _0193_
*373 _0194_
*374 _0195_
*375 _0196_
*376 _0197_
*377 _0198_
*378 _0199_
*379 _0200_
*380 _0201_
*381 _0202_
*382 _0203_
*383 _0204_
*384 _0205_
*385 _0206_
*386 _0207_
*387 _0208_
*388 _0209_
*389 _0210_
*390 _0211_
*391 _0212_
*392 _0213_
*393 _0214_
*394 _0215_
*395 _0216_
*396 _0217_
*397 _0218_
*398 _0219_
*399 _0220_
*400 _0221_
*401 _0222_
*402 _0223_
*403 _0224_
*404 _0225_
*405 _0226_
*406 _0227_
*407 _0228_
*408 _0229_
*409 _0230_
*410 _0231_
*411 _0232_
*412 _0233_
*413 _0234_
*414 _0235_
*415 _0236_
*416 _0237_
*417 _0238_
*418 _0239_
*419 _0240_
*420 _0241_
*421 _0242_
*422 _0243_
*423 _0244_
*424 _0245_
*425 _0246_
*426 _0247_
*427 _0248_
*428 _0249_
*429 _0250_
*430 _0251_
*431 _0252_
*432 _0253_
*433 _0254_
*434 _0255_
*435 _0256_
*436 _0257_
*437 _0258_
*438 _0259_
*439 _0260_
*440 _0261_
*441 _0262_
*442 _0263_
*443 _0264_
*444 _0265_
*445 _0266_
*446 _0267_
*447 _0268_
*448 _0269_
*449 _0270_
*450 _0271_
*451 _0272_
*452 _0273_
*453 _0274_
*454 _0275_
*455 _0276_
*456 _0277_
*457 _0278_
*458 _0279_
*459 _0280_
*460 _0281_
*461 _0282_
*462 _0283_
*463 _0284_
*464 _0285_
*465 _0286_
*466 _0287_
*467 _0288_
*468 _0289_
*469 _0290_
*470 _0291_
*471 _0292_
*472 _0293_
*473 _0294_
*474 _0295_
*475 _0296_
*476 _0297_
*477 _0298_
*478 _0299_
*479 _0300_
*480 _0301_
*481 _0302_
*482 _0303_
*483 _0304_
*484 _0305_
*485 _0306_
*486 _0307_
*487 _0308_
*488 _0309_
*489 _0310_
*490 _0311_
*491 _0312_
*492 _0313_
*493 _0314_
*494 _0315_
*495 _0316_
*496 _0317_
*497 _0318_
*498 _0319_
*499 _0320_
*500 _0321_
*501 _0322_
*502 _0323_
*503 _0324_
*504 _0325_
*505 _0326_
*506 _0327_
*507 _0328_
*508 _0329_
*509 _0330_
*510 _0331_
*511 _0332_
*512 _0333_
*513 _0334_
*514 _0335_
*515 _0336_
*516 _0337_
*517 _0338_
*518 _0339_
*519 _0340_
*520 _0341_
*521 _0342_
*522 _0343_
*523 _0344_
*524 _0345_
*525 _0346_
*526 _0347_
*527 _0348_
*528 _0349_
*529 _0350_
*530 _0351_
*531 _0352_
*532 _0353_
*533 _0354_
*534 _0355_
*535 _0356_
*536 _0357_
*537 _0358_
*538 _0359_
*539 _0360_
*540 _0361_
*541 _0362_
*542 _0363_
*543 _0364_
*544 _0365_
*545 _0366_
*546 _0367_
*547 _0368_
*548 _0369_
*549 _0370_
*550 _0371_
*551 _0372_
*552 _0373_
*553 _0374_
*554 _0375_
*555 _0376_
*556 _0377_
*557 _0378_
*558 _0379_
*559 _0380_
*560 _0381_
*561 _0382_
*562 _0383_
*563 _0384_
*564 _0385_
*565 _0386_
*566 _0387_
*567 _0388_
*568 _0389_
*569 _0390_
*570 _0391_
*571 _0392_
*572 _0393_
*573 _0394_
*574 _0395_
*575 _0396_
*576 _0397_
*577 _0398_
*578 _0399_
*579 _0400_
*580 _0401_
*581 _0402_
*582 _0403_
*583 _0404_
*584 _0405_
*585 _0406_
*586 _0407_
*587 _0408_
*588 _0409_
*589 _0410_
*590 _0411_
*591 _0412_
*592 _0413_
*593 _0414_
*594 _0415_
*595 _0416_
*596 _0417_
*597 _0418_
*598 _0419_
*599 _0420_
*600 _0421_
*601 _0422_
*602 _0423_
*603 _0424_
*604 _0425_
*605 _0426_
*606 _0427_
*607 _0428_
*608 _0429_
*609 _0430_
*610 _0431_
*611 _0432_
*612 _0433_
*613 _0434_
*614 _0435_
*615 _0436_
*616 _0437_
*617 _0438_
*618 _0439_
*619 _0440_
*620 _0441_
*621 _0442_
*622 _0443_
*623 _0444_
*624 _0445_
*625 _0446_
*626 _0447_
*627 _0448_
*628 _0449_
*629 _0450_
*630 _0451_
*631 _0452_
*632 _0453_
*633 _0454_
*634 _0455_
*635 _0456_
*636 _0457_
*637 _0458_
*638 _0459_
*639 _0460_
*640 _0461_
*641 _0462_
*642 _0463_
*643 _0464_
*644 _0465_
*645 _0466_
*646 _0467_
*647 _0468_
*648 _0469_
*649 _0470_
*650 _0471_
*651 _0472_
*652 _0473_
*653 _0474_
*654 _0475_
*655 _0476_
*656 _0477_
*657 _0478_
*658 _0479_
*659 _0480_
*660 _0481_
*661 _0482_
*662 _0483_
*663 _0484_
*664 _0485_
*665 _0486_
*666 _0487_
*667 _0488_
*668 _0489_
*669 _0490_
*670 _0491_
*671 _0492_
*672 _0493_
*673 _0494_
*674 _0495_
*675 _0496_
*676 _0497_
*677 _0498_
*678 _0499_
*679 _0500_
*680 _0501_
*681 _0502_
*682 _0503_
*683 _0504_
*684 _0505_
*685 _0506_
*686 _0507_
*687 _0508_
*688 _0509_
*689 _0510_
*690 _0511_
*691 _0512_
*692 _0513_
*693 _0514_
*694 _0515_
*695 _0516_
*696 _0517_
*697 _0518_
*698 _0519_
*699 _0520_
*700 _0521_
*701 _0522_
*702 _0523_
*703 _0524_
*704 _0525_
*705 _0526_
*706 _0527_
*707 _0528_
*708 _0529_
*709 _0530_
*710 _0531_
*711 _0532_
*712 _0533_
*713 _0534_
*714 _0535_
*715 _0536_
*716 _0537_
*717 _0538_
*718 _0539_
*719 _0540_
*720 _0541_
*721 _0542_
*722 _0543_
*723 _0544_
*724 _0545_
*725 _0546_
*726 _0547_
*727 _0548_
*728 _0549_
*729 _0550_
*730 _0551_
*731 _0552_
*732 _0553_
*733 _0554_
*734 _0555_
*735 _0556_
*736 _0557_
*737 _0558_
*738 _0559_
*739 _0560_
*740 _0561_
*741 _0562_
*742 _0563_
*743 _0564_
*744 _0565_
*745 _0566_
*746 _0567_
*747 _0568_
*748 _0569_
*749 _0570_
*750 _0571_
*751 _0572_
*752 _0573_
*753 _0574_
*754 _0575_
*755 _0576_
*756 _0577_
*757 _0578_
*758 _0579_
*759 _0580_
*760 _0581_
*761 _0582_
*762 _0583_
*763 _0584_
*764 _0585_
*765 _0586_
*766 _0587_
*767 _0588_
*768 _0589_
*769 _0590_
*770 _0591_
*771 _0592_
*772 _0593_
*773 _0594_
*774 _0595_
*775 _0596_
*776 _0597_
*777 _0598_
*778 _0599_
*779 _0600_
*780 _0601_
*781 _0602_
*782 _0603_
*783 _0604_
*784 _0605_
*785 _0606_
*786 _0607_
*787 _0608_
*788 _0609_
*789 _0610_
*790 _0611_
*791 _0612_
*792 _0613_
*793 _0614_
*794 _0615_
*795 _0616_
*796 _0617_
*797 _0618_
*798 _0619_
*799 _0620_
*800 _0621_
*801 _0622_
*802 _0623_
*803 _0624_
*804 _0625_
*805 _0626_
*806 _0627_
*807 _0628_
*808 _0629_
*809 _0630_
*810 _0631_
*811 _0632_
*812 _0633_
*813 _0634_
*814 _0635_
*815 _0636_
*816 _0637_
*817 _0638_
*818 _0639_
*819 _0640_
*820 _0641_
*821 _0642_
*822 _0643_
*823 _0644_
*824 _0645_
*825 _0646_
*826 _0647_
*827 _0648_
*828 _0649_
*829 _0650_
*830 _0651_
*831 _0652_
*832 _0653_
*833 _0654_
*834 _0655_
*835 _0656_
*836 _0657_
*837 _0658_
*838 _0659_
*839 _0660_
*840 _0661_
*841 _0662_
*842 _0663_
*843 _0664_
*844 _0665_
*845 _0666_
*846 _0667_
*847 _0668_
*848 _0669_
*849 _0670_
*850 _0671_
*851 _0672_
*852 _0673_
*853 _0674_
*854 _0675_
*855 _0676_
*856 _0677_
*857 _0678_
*858 _0679_
*859 _0680_
*860 _0681_
*861 _0682_
*862 _0683_
*863 _0684_
*864 _0685_
*865 _0686_
*866 _0687_
*867 _0688_
*868 _0689_
*869 _0690_
*870 _0691_
*871 _0692_
*872 _0693_
*873 _0694_
*874 _0695_
*875 _0696_
*876 _0697_
*877 _0698_
*878 _0699_
*879 _0700_
*880 _0701_
*881 _0702_
*882 _0703_
*883 _0704_
*884 _0705_
*885 _0706_
*886 _0707_
*887 _0708_
*888 _0709_
*889 _0710_
*890 _0711_
*891 _0712_
*892 _0713_
*893 _0714_
*894 _0715_
*895 _0716_
*896 _0717_
*897 _0718_
*898 _0719_
*899 _0720_
*900 _0721_
*901 _0722_
*902 _0723_
*903 _0724_
*904 _0725_
*905 _0726_
*906 _0727_
*907 _0728_
*908 _0729_
*909 _0730_
*910 _0731_
*911 _0732_
*912 _0733_
*913 _0734_
*914 _0735_
*915 _0736_
*916 _0737_
*917 _0738_
*918 _0739_
*919 _0740_
*920 _0741_
*921 _0742_
*922 _0743_
*923 _0744_
*924 _0745_
*925 _0746_
*926 _0747_
*927 _0748_
*928 _0749_
*929 _0750_
*930 _0751_
*931 _0752_
*932 _0753_
*933 _0754_
*934 _0755_
*935 _0756_
*936 _0757_
*937 _0758_
*938 _0759_
*939 _0760_
*940 _0761_
*941 _0762_
*942 _0763_
*943 _0764_
*944 _0765_
*945 _0766_
*946 _0767_
*947 _0768_
*948 _0769_
*949 _0770_
*950 _0771_
*951 _0772_
*952 _0773_
*953 _0774_
*954 _0775_
*955 _0776_
*956 _0777_
*957 _0778_
*958 _0779_
*959 _0780_
*960 _0781_
*961 _0782_
*962 _0783_
*963 _0784_
*964 _0785_
*965 _0786_
*966 _0787_
*967 _0788_
*968 _0789_
*969 _0790_
*970 _0791_
*971 _0792_
*972 _0793_
*973 _0794_
*974 _0795_
*975 _0796_
*976 _0797_
*977 _0798_
*978 _0799_
*979 _0800_
*980 _0801_
*981 _0802_
*982 _0803_
*983 _0804_
*984 _0805_
*985 _0806_
*986 _0807_
*987 _0808_
*988 _0809_
*989 _0810_
*990 _0811_
*991 _0812_
*992 _0813_
*993 _0814_
*994 _0815_
*995 _0816_
*996 _0817_
*997 _0818_
*998 _0819_
*999 _0820_
*1000 _0821_
*1001 _0822_
*1002 _0823_
*1003 _0824_
*1004 _0825_
*1005 _0826_
*1006 _0827_
*1007 _0828_
*1008 _0829_
*1009 _0830_
*1010 _0831_
*1011 _0832_
*1012 _0833_
*1013 _0834_
*1014 _0835_
*1015 _0836_
*1016 _0837_
*1017 _0838_
*1018 _0839_
*1019 _0840_
*1020 _0841_
*1021 _0842_
*1022 _0843_
*1023 _0844_
*1024 _0845_
*1025 _0846_
*1026 _0847_
*1027 _0848_
*1028 _0849_
*1029 _0850_
*1030 _0851_
*1031 _0852_
*1032 _0853_
*1033 _0854_
*1034 _0855_
*1035 _0856_
*1036 _0857_
*1037 _0858_
*1038 _0859_
*1039 _0860_
*1040 _0861_
*1041 _0862_
*1042 _0863_
*1043 _0864_
*1044 _0865_
*1045 _0866_
*1046 _0867_
*1047 _0868_
*1048 _0869_
*1049 _0870_
*1050 _0871_
*1051 _0872_
*1052 _0873_
*1053 _0874_
*1054 _0875_
*1055 _0876_
*1056 _0877_
*1057 _0878_
*1058 _0879_
*1059 _0880_
*1060 _0881_
*1061 _0882_
*1062 _0883_
*1063 _0884_
*1064 _0885_
*1065 _0886_
*1066 _0887_
*1067 _0888_
*1068 _0889_
*1069 _0890_
*1070 _0891_
*1071 _0892_
*1072 _0893_
*1073 _0894_
*1074 _0895_
*1075 _0896_
*1076 _0897_
*1077 _0898_
*1078 _0899_
*1079 _0900_
*1080 _0901_
*1081 _0902_
*1082 _0903_
*1083 _0904_
*1084 _0905_
*1085 _0906_
*1086 _0907_
*1087 _0908_
*1088 _0909_
*1089 _0910_
*1090 _0911_
*1091 _0912_
*1092 _0913_
*1093 _0914_
*1094 _0915_
*1095 _0916_
*1096 _0917_
*1097 _0918_
*1098 _0919_
*1099 _0920_
*1100 _0921_
*1101 _0922_
*1102 _0923_
*1103 _0924_
*1104 _0925_
*1105 _0926_
*1106 _0927_
*1107 _0928_
*1108 _0929_
*1109 _0930_
*1110 _0931_
*1111 _0932_
*1112 _0933_
*1113 _0934_
*1114 _0935_
*1115 _0936_
*1116 _0937_
*1117 _0938_
*1118 _0939_
*1119 _0940_
*1120 _0941_
*1121 _0942_
*1122 _0943_
*1123 _0944_
*1124 _0945_
*1125 _0946_
*1126 _0947_
*1127 _0948_
*1128 _0949_
*1129 _0950_
*1130 _0951_
*1131 _0952_
*1132 _0953_
*1133 _0954_
*1134 _0955_
*1135 _0956_
*1136 _0957_
*1137 _0958_
*1138 _0959_
*1139 _0960_
*1140 _0961_
*1141 _0962_
*1142 _0963_
*1143 _0964_
*1144 _0965_
*1145 _0966_
*1146 _0967_
*1147 _0968_
*1148 _0969_
*1149 _0970_
*1150 _0971_
*1151 _0972_
*1152 _0973_
*1153 _0974_
*1154 _0975_
*1155 _0976_
*1156 _0977_
*1157 _0978_
*1158 _0979_
*1159 _0980_
*1160 _0981_
*1161 _0982_
*1162 _0983_
*1163 _0984_
*1164 _0985_
*1165 _0986_
*1166 _0987_
*1167 _0988_
*1168 _0989_
*1169 _0990_
*1170 _0991_
*1171 _0992_
*1172 _0993_
*1173 _0994_
*1174 _0995_
*1175 _0996_
*1176 _0997_
*1177 _0998_
*1178 _0999_
*1179 _1000_
*1180 _1001_
*1181 _1002_
*1182 _1003_
*1183 _1004_
*1184 _1005_
*1185 _1006_
*1186 _1007_
*1187 _1008_
*1188 _1009_
*1189 _1010_
*1190 _1011_
*1191 _1012_
*1192 _1013_
*1193 _1014_
*1194 _1015_
*1195 _1016_
*1196 _1017_
*1197 _1018_
*1198 _1019_
*1199 _1020_
*1200 _1021_
*1201 _1022_
*1202 _1023_
*1203 _1024_
*1204 _1025_
*1205 _1026_
*1206 _1027_
*1207 _1028_
*1208 _1029_
*1209 _1030_
*1210 _1031_
*1211 _1032_
*1212 _1033_
*1213 _1034_
*1214 _1035_
*1215 _1036_
*1216 _1037_
*1217 _1038_
*1218 _1039_
*1219 _1040_
*1220 _1041_
*1221 _1042_
*1222 _1043_
*1223 _1044_
*1224 _1045_
*1225 _1046_
*1226 _1047_
*1227 _1048_
*1228 _1049_
*1229 _1050_
*1230 _1051_
*1231 _1052_
*1232 _1053_
*1233 _1054_
*1234 _1055_
*1235 _1056_
*1236 _1057_
*1237 _1058_
*1238 _1059_
*1239 _1060_
*1240 _1061_
*1241 _1062_
*1242 _1063_
*1243 _1064_
*1244 _1065_
*1245 _1066_
*1246 _1067_
*1247 _1068_
*1248 _1069_
*1249 _1070_
*1250 _1071_
*1251 _1072_
*1252 _1073_
*1253 _1074_
*1254 _1075_
*1255 _1076_
*1256 _1077_
*1257 _1078_
*1258 _1079_
*1259 _1080_
*1260 _1081_
*1261 _1082_
*1262 _1083_
*1263 _1084_
*1264 _1085_
*1265 _1086_
*1266 _1087_
*1267 _1088_
*1268 _1089_
*1269 _1090_
*1270 _1091_
*1271 _1092_
*1272 _1093_
*1273 _1094_
*1274 _1095_
*1275 _1096_
*1276 _1097_
*1277 _1098_
*1278 _1099_
*1279 _1100_
*1280 _1101_
*1281 _1102_
*1282 _1103_
*1283 _1104_
*1284 _1105_
*1285 _1106_
*1286 _1107_
*1287 _1108_
*1288 _1109_
*1289 _1110_
*1290 _1111_
*1291 _1112_
*1292 _1113_
*1293 _1114_
*1294 _1115_
*1295 _1116_
*1296 _1117_
*1297 _1118_
*1298 _1119_
*1299 _1120_
*1300 _1121_
*1301 _1122_
*1302 _1123_
*1303 _1124_
*1304 _1125_
*1305 _1126_
*1306 _1127_
*1307 _1128_
*1308 _1129_
*1309 _1130_
*1310 _1131_
*1311 _1132_
*1312 _1133_
*1313 _1134_
*1314 _1135_
*1315 _1136_
*1316 _1137_
*1317 _1138_
*1318 _1139_
*1319 _1140_
*1320 _1141_
*1321 _1142_
*1322 _1143_
*1323 _1144_
*1324 _1145_
*1325 _1146_
*1326 _1147_
*1327 _1148_
*1328 _1149_
*1329 _1150_
*1330 _1151_
*1331 _1152_
*1332 _1153_
*1333 _1154_
*1334 _1155_
*1335 _1156_
*1336 _1157_
*1337 _1158_
*1338 _1159_
*1339 _1160_
*1340 _1161_
*1341 _1162_
*1342 _1163_
*1343 _1164_
*1344 _1165_
*1345 _1166_
*1346 _1167_
*1347 _1168_
*1348 _1169_
*1349 _1170_
*1350 _1171_
*1351 _1172_
*1352 _1173_
*1353 _1174_
*1354 _1175_
*1355 _1176_
*1356 _1177_
*1357 _1178_
*1358 _1179_
*1359 _1180_
*1360 _1181_
*1361 _1182_
*1362 _1183_
*1363 _1184_
*1364 _1185_
*1365 _1186_
*1366 _1187_
*1367 _1188_
*1368 _1189_
*1369 _1190_
*1370 _1191_
*1371 _1192_
*1372 _1193_
*1373 _1194_
*1374 _1195_
*1375 _1196_
*1376 _1197_
*1377 _1198_
*1378 _1199_
*1379 _1200_
*1380 _1201_
*1381 _1202_
*1382 _1203_
*1383 _1204_
*1384 _1205_
*1385 _1206_
*1386 _1207_
*1387 _1208_
*1388 _1209_
*1389 _1210_
*1390 _1211_
*1391 _1212_
*1392 _1213_
*1393 _1214_
*1394 _1215_
*1395 _1216_
*1396 _1217_
*1397 _1218_
*1398 _1219_
*1399 _1220_
*1400 _1221_
*1401 _1222_
*1402 _1223_
*1403 _1224_
*1404 _1225_
*1405 _1226_
*1406 _1227_
*1407 _1228_
*1408 _1229_
*1409 _1230_
*1410 _1231_
*1411 _1232_
*1412 _1233_
*1413 _1234_
*1414 _1235_
*1415 _1236_
*1416 _1237_
*1417 _1238_
*1418 _1239_
*1419 _1240_
*1420 _1241_
*1421 _1242_
*1422 _1243_
*1423 _1244_
*1424 _1245_
*1425 _1246_
*1426 _1247_
*1427 _1248_
*1428 _1249_
*1429 _1250_
*1430 _1251_
*1431 _1252_
*1432 _1253_
*1433 _1254_
*1434 _1255_
*1435 _1256_
*1436 _1257_
*1437 _1258_
*1438 _1259_
*1439 _1260_
*1440 _1261_
*1441 _1262_
*1442 _1263_
*1443 _1264_
*1444 _1265_
*1445 _1266_
*1446 _1267_
*1447 _1268_
*1448 _1269_
*1449 _1270_
*1450 _1271_
*1451 _1272_
*1452 _1273_
*1453 _1274_
*1454 _1275_
*1455 _1276_
*1456 _1277_
*1457 _1278_
*1458 _1279_
*1459 _1280_
*1460 _1281_
*1461 _1282_
*1462 _1283_
*1463 _1284_
*1464 _1285_
*1465 _1286_
*1466 _1287_
*1467 _1288_
*1468 _1289_
*1469 _1290_
*1470 _1291_
*1471 _1292_
*1472 _1293_
*1473 _1294_
*1474 _1295_
*1475 _1296_
*1476 _1297_
*1477 _1298_
*1478 _1299_
*1479 _1300_
*1480 _1301_
*1481 _1302_
*1482 _1303_
*1483 _1304_
*1484 _1305_
*1485 _1306_
*1486 _1307_
*1487 _1308_
*1488 _1309_
*1489 _1310_
*1490 _1311_
*1491 _1312_
*1492 _1313_
*1493 _1314_
*1494 _1315_
*1495 _1316_
*1496 _1317_
*1497 _1318_
*1498 _1319_
*1499 _1320_
*1500 _1321_
*1501 _1322_
*1502 _1323_
*1503 _1324_
*1504 _1325_
*1505 _1326_
*1506 _1327_
*1507 _1328_
*1508 _1329_
*1509 _1330_
*1510 _1331_
*1511 _1332_
*1512 _1333_
*1513 _1334_
*1514 _1335_
*1515 _1336_
*1516 _1337_
*1517 _1338_
*1518 _1339_
*1519 _1340_
*1520 _1341_
*1521 _1342_
*1522 _1343_
*1523 _1344_
*1524 _1345_
*1525 _1346_
*1526 _1347_
*1527 _1348_
*1528 _1349_
*1529 _1350_
*1530 _1351_
*1531 _1352_
*1532 _1353_
*1533 _1354_
*1534 _1355_
*1535 _1356_
*1536 _1357_
*1537 _1358_
*1538 _1359_
*1539 _1360_
*1540 _1361_
*1541 _1362_
*1542 _1363_
*1543 _1364_
*1544 _1365_
*1545 _1366_
*1546 _1367_
*1547 _1368_
*1548 _1369_
*1549 _1370_
*1550 _1371_
*1551 _1372_
*1552 _1373_
*1553 _1374_
*1554 _1375_
*1555 _1376_
*1556 _1377_
*1557 _1378_
*1558 _1379_
*1559 _1380_
*1560 _1381_
*1561 _1382_
*1562 _1383_
*1563 _1384_
*1564 _1385_
*1565 _1386_
*1566 _1387_
*1567 _1388_
*1568 _1389_
*1569 _1390_
*1570 _1391_
*1571 _1392_
*1572 _1393_
*1573 _1394_
*1574 _1395_
*1575 _1396_
*1576 _1397_
*1577 _1398_
*1578 _1399_
*1579 _1400_
*1580 _1401_
*1581 _1402_
*1582 _1403_
*1583 _1404_
*1584 _1405_
*1585 _1406_
*1586 _1407_
*1587 _1408_
*1588 _1409_
*1589 _1410_
*1590 _1411_
*1591 _1412_
*1592 _1413_
*1593 _1414_
*1594 _1415_
*1595 _1416_
*1596 _1417_
*1597 _1418_
*1598 _1419_
*1599 _1420_
*1600 _1421_
*1601 _1422_
*1602 _1423_
*1603 _1424_
*1604 _1425_
*1605 _1426_
*1606 _1427_
*1607 _1428_
*1608 _1429_
*1609 _1430_
*1610 _1431_
*1611 _1432_
*1612 _1433_
*1613 _1434_
*1614 _1435_
*1615 _1436_
*1616 _1437_
*1617 _1438_
*1618 _1439_
*1619 _1440_
*1620 _1441_
*1621 _1442_
*1622 _1443_
*1623 _1444_
*1624 _1445_
*1625 _1446_
*1626 _1447_
*1627 _1448_
*1628 _1449_
*1629 _1450_
*1630 _1451_
*1631 _1452_
*1632 _1453_
*1633 _1454_
*1634 _1455_
*1635 _1456_
*1636 _1457_
*1637 _1458_
*1638 _1459_
*1639 _1460_
*1640 _1461_
*1641 _1462_
*1642 _1463_
*1643 _1464_
*1644 _1465_
*1645 _1466_
*1646 _1467_
*1647 _1468_
*1648 _1469_
*1649 _1470_
*1650 _1471_
*1651 _1472_
*1652 _1473_
*1653 _1474_
*1654 _1475_
*1655 _1476_
*1656 _1477_
*1657 _1478_
*1658 _1479_
*1659 _1480_
*1660 _1481_
*1661 _1482_
*1662 _1483_
*1663 _1484_
*1664 _1485_
*1665 _1486_
*1666 _1487_
*1667 _1488_
*1668 _1489_
*1669 _1490_
*1670 _1491_
*1671 _1492_
*1672 _1493_
*1673 _1494_
*1674 _1495_
*1675 _1496_
*1676 _1497_
*1677 _1498_
*1678 _1499_
*1679 _1500_
*1680 _1501_
*1681 _1502_
*1682 _1503_
*1683 _1504_
*1684 _1505_
*1685 _1506_
*1686 _1507_
*1687 _1508_
*1688 _1509_
*1689 _1510_
*1690 _1511_
*1691 _1512_
*1692 _1513_
*1693 _1514_
*1694 _1515_
*1695 _1516_
*1696 _1517_
*1697 _1518_
*1698 _1519_
*1699 _1520_
*1700 _1521_
*1701 _1522_
*1702 _1523_
*1703 _1524_
*1704 _1525_
*1705 _1526_
*1706 _1527_
*1707 _1528_
*1708 _1529_
*1709 _1530_
*1710 _1531_
*1711 _1532_
*1712 _1533_
*1713 _1534_
*1714 _1535_
*1715 _1536_
*1716 _1537_
*1717 _1538_
*1718 _1539_
*1719 _1540_
*1720 _1541_
*1721 _1542_
*1722 _1543_
*1723 _1544_
*1724 _1545_
*1725 _1546_
*1726 _1547_
*1727 _1548_
*1728 _1549_
*1729 _1550_
*1730 _1551_
*1731 _1552_
*1732 _1553_
*1733 _1554_
*1734 _1555_
*1735 _1556_
*1736 _1557_
*1737 _1558_
*1738 _1559_
*1739 _1560_
*1740 _1561_
*1741 _1562_
*1742 _1563_
*1743 _1564_
*1744 _1565_
*1745 _1566_
*1746 _1567_
*1747 _1568_
*1748 _1569_
*1749 _1570_
*1750 _1571_
*1751 _1572_
*1752 _1573_
*1753 _1574_
*1754 _1575_
*1755 _1576_
*1756 _1577_
*1757 _1578_
*1758 _1579_
*1759 _1580_
*1760 _1581_
*1761 _1582_
*1762 _1583_
*1763 _1584_
*1764 _1585_
*1765 _1586_
*1766 _1587_
*1767 _1588_
*1768 _1589_
*1769 _1590_
*1770 _1591_
*1771 _1592_
*1772 _1593_
*1773 _1594_
*1774 _1595_
*1775 _1596_
*1776 _1597_
*1777 _1598_
*1778 _1599_
*1779 _1600_
*1780 _1601_
*1781 _1602_
*1782 _1603_
*1783 _1604_
*1784 _1605_
*1785 _1606_
*1786 _1607_
*1787 _1608_
*1788 _1609_
*1789 _1610_
*1790 _1611_
*1791 _1612_
*1792 _1613_
*1793 _1614_
*1794 _1615_
*1795 _1616_
*1796 _1617_
*1797 _1618_
*1798 _1619_
*1799 _1620_
*1800 _1621_
*1801 _1622_
*1802 _1623_
*1803 _1624_
*1804 _1625_
*1805 _1626_
*1806 _1627_
*1807 _1628_
*1808 _1629_
*1809 _1630_
*1810 _1631_
*1811 _1632_
*1812 _1633_
*1813 _1634_
*1814 _1635_
*1815 _1636_
*1816 _1637_
*1817 _1638_
*1818 _1639_
*1819 _1640_
*1820 _1641_
*1821 _1642_
*1822 _1643_
*1823 _1644_
*1824 _1645_
*1825 _1646_
*1826 _1647_
*1827 _1648_
*1828 _1649_
*1829 _1650_
*1830 _1651_
*1831 _1652_
*1832 _1653_
*1833 _1654_
*1834 _1655_
*1835 _1656_
*1836 _1657_
*1837 _1658_
*1838 _1659_
*1839 _1660_
*1840 _1661_
*1841 _1662_
*1842 _1663_
*1843 _1664_
*1844 _1665_
*1845 _1666_
*1846 _1667_
*1847 _1668_
*1848 _1669_
*1849 _1670_
*1850 _1671_
*1851 _1672_
*1852 _1673_
*1853 _1674_
*1854 _1675_
*1855 _1676_
*1856 _1677_
*1857 _1678_
*1858 _1679_
*1859 _1680_
*1860 _1681_
*1861 _1682_
*1862 _1683_
*1863 _1684_
*1864 _1685_
*1865 _1686_
*1866 _1687_
*1867 _1688_
*1868 _1689_
*1869 _1690_
*1870 _1691_
*1871 _1692_
*1872 _1693_
*1873 _1694_
*1874 _1695_
*1875 _1696_
*1876 _1697_
*1877 _1698_
*1878 _1699_
*1879 _1700_
*1880 _1701_
*1881 _1702_
*1882 _1703_
*1883 _1704_
*1884 _1705_
*1885 _1706_
*1886 _1707_
*1887 _1708_
*1888 _1709_
*1889 _1710_
*1890 _1711_
*1891 _1712_
*1892 _1713_
*1893 _1714_
*1894 _1715_
*1895 _1716_
*1896 _1717_
*1897 _1718_
*1898 _1719_
*1899 _1720_
*1900 _1721_
*1901 _1722_
*1902 _1723_
*1903 _1724_
*1904 _1725_
*1905 _1726_
*1906 _1727_
*1907 _1728_
*1908 _1729_
*1909 _1730_
*1910 _1731_
*1911 _1732_
*1912 _1733_
*1913 _1734_
*1914 _1735_
*1915 _1736_
*1916 _1737_
*1917 _1738_
*1918 _1739_
*1919 _1740_
*1920 _1741_
*1921 _1742_
*1922 _1743_
*1923 _1744_
*1924 _1745_
*1925 _1746_
*1926 _1747_
*1927 _1748_
*1928 _1749_
*1929 _1750_
*1930 _1751_
*1931 _1752_
*1932 _1753_
*1933 _1754_
*1934 _1755_
*1935 _1756_
*1936 _1757_
*1937 _1758_
*1938 _1759_
*1939 _1760_
*1940 _1761_
*1941 _1762_
*1942 _1763_
*1943 _1764_
*1944 _1765_
*1945 _1766_
*1946 _1767_
*1947 _1768_
*1948 _1769_
*1949 _1770_
*1950 _1771_
*1951 _1772_
*1952 _1773_
*1953 _1774_
*1954 _1775_
*1955 _1776_
*1956 _1777_
*1957 _1778_
*1958 _1779_
*1959 _1780_
*1960 _1781_
*1961 _1782_
*1962 _1783_
*1963 _1784_
*1964 _1785_
*1965 _1786_
*1966 _1787_
*1967 _1788_
*1968 _1789_
*1969 _1790_
*1970 _1791_
*1971 _1792_
*1972 _1793_
*1973 _1794_
*1974 _1795_
*1975 _1796_
*1976 _1797_
*1977 _1798_
*1978 _1799_
*1979 _1800_
*1980 _1801_
*1981 _1802_
*1982 _1803_
*1983 _1804_
*1984 _1805_
*1985 _1806_
*1986 _1807_
*1987 _1808_
*1988 _1809_
*1989 _1810_
*1990 _1811_
*1991 _1812_
*1992 _1813_
*1993 _1814_
*1994 _1815_
*1995 _1816_
*1996 _1817_
*1997 _1818_
*1998 _1819_
*1999 _1820_
*2000 _1821_
*2001 _1822_
*2002 _1823_
*2003 _1824_
*2004 _1825_
*2005 _1826_
*2006 _1827_
*2007 _1828_
*2008 _1829_
*2009 _1830_
*2010 _1831_
*2011 _1832_
*2012 _1833_
*2013 _1834_
*2014 _1835_
*2015 _1836_
*2016 _1837_
*2017 _1838_
*2018 _1839_
*2019 _1840_
*2020 _1841_
*2021 _1842_
*2022 _1843_
*2023 _1844_
*2024 _1845_
*2025 _1846_
*2026 _1847_
*2027 _1848_
*2028 _1849_
*2029 _1850_
*2030 _1851_
*2031 _1852_
*2032 _1853_
*2033 _1854_
*2034 _1855_
*2035 _1856_
*2036 _1857_
*2037 _1858_
*2038 _1859_
*2039 _1860_
*2040 _1861_
*2041 _1862_
*2042 _1863_
*2043 _1864_
*2044 _1865_
*2045 _1866_
*2046 _1867_
*2047 _1868_
*2048 _1869_
*2049 _1870_
*2050 _1871_
*2051 _1872_
*2052 _1873_
*2053 _1874_
*2054 _1875_
*2055 _1876_
*2056 _1877_
*2057 _1878_
*2058 _1879_
*2059 _1880_
*2060 _1881_
*2061 _1882_
*2062 _1883_
*2063 _1884_
*2064 _1885_
*2065 _1886_
*2066 _1887_
*2067 _1888_
*2068 _1889_
*2069 _1890_
*2070 _1891_
*2071 _1892_
*2072 _1893_
*2073 _1894_
*2074 _1895_
*2075 _1896_
*2076 _1897_
*2077 _1898_
*2078 _1899_
*2079 _1900_
*2080 _1901_
*2081 _1902_
*2082 _1903_
*2083 _1904_
*2084 _1905_
*2085 _1906_
*2086 _1907_
*2087 _1908_
*2088 _1909_
*2089 _1910_
*2090 _1911_
*2091 _1912_
*2092 _1913_
*2093 _1914_
*2094 _1915_
*2095 _1916_
*2096 _1917_
*2097 _1918_
*2098 _1919_
*2099 _1920_
*2100 _1921_
*2101 _1922_
*2102 _1923_
*2103 _1924_
*2104 _1925_
*2105 _1926_
*2106 _1927_
*2107 _1928_
*2108 _1929_
*2109 _1930_
*2110 _1931_
*2111 _1932_
*2112 _1933_
*2113 _1934_
*2114 _1935_
*2115 _1936_
*2116 _1937_
*2117 _1938_
*2118 _1939_
*2119 _1940_
*2120 _1941_
*2121 _1942_
*2122 _1943_
*2123 _1944_
*2124 _1945_
*2125 _1946_
*2126 _1947_
*2127 _1948_
*2128 _1949_
*2129 _1950_
*2130 _1951_
*2131 _1952_
*2132 _1953_
*2133 _1954_
*2134 _1955_
*2135 _1956_
*2136 _1957_
*2137 _1958_
*2138 _1959_
*2139 _1960_
*2140 _1961_
*2141 _1962_
*2142 _1963_
*2143 _1964_
*2144 _1965_
*2145 _1966_
*2146 _1967_
*2147 _1968_
*2148 _1969_
*2149 _1970_
*2150 _1971_
*2151 _1972_
*2152 _1973_
*2153 _1974_
*2154 _1975_
*2155 _1976_
*2156 _1977_
*2157 _1978_
*2158 _1979_
*2159 _1980_
*2160 _1981_
*2161 _1982_
*2162 _1983_
*2163 _1984_
*2164 _1985_
*2165 _1986_
*2166 _1987_
*2167 _1988_
*2168 _1989_
*2169 _1990_
*2170 _1991_
*2171 _1992_
*2172 _1993_
*2173 _1994_
*2174 _1995_
*2175 _1996_
*2176 _1997_
*2177 _1998_
*2178 _1999_
*2179 _2000_
*2180 _2001_
*2181 _2002_
*2182 _2003_
*2183 _2004_
*2184 _2005_
*2185 _2006_
*2186 _2007_
*2187 _2008_
*2188 _2009_
*2189 _2010_
*2190 _2011_
*2191 _2012_
*2192 _2013_
*2193 _2014_
*2194 _2015_
*2195 _2016_
*2196 _2017_
*2197 _2018_
*2198 _2019_
*2199 _2020_
*2200 _2021_
*2201 _2022_
*2202 _2023_
*2203 _2024_
*2204 _2025_
*2205 _2026_
*2206 _2027_
*2207 _2028_
*2208 _2029_
*2209 _2030_
*2210 _2031_
*2211 _2032_
*2212 _2033_
*2213 _2034_
*2214 _2035_
*2215 _2036_
*2216 _2037_
*2217 _2038_
*2218 _2039_
*2219 _2040_
*2220 _2041_
*2221 _2042_
*2222 _2043_
*2223 _2044_
*2224 _2045_
*2225 _2046_
*2226 _2047_
*2227 _2048_
*2228 _2049_
*2229 _2050_
*2230 _2051_
*2231 _2052_
*2232 _2053_