*SPEF "ieee 1481-1999"
*DESIGN "user_project_wrapper"
*DATE "11:11:11 Fri 11 11, 1111"
*VENDOR "OpenRCX"
*PROGRAM "Parallel Extraction"
*VERSION "1.0"
*DESIGN_FLOW "NAME_SCOPE LOCAL" "PIN_CAP NONE"
*DIVIDER /
*DELIMITER :
*BUS_DELIMITER []
*T_UNIT 1 NS
*C_UNIT 1 PF
*R_UNIT 1 OHM
*L_UNIT 1 HENRY

*NAME_MAP
*1 io_in[0]
*2 io_in[10]
*3 io_in[11]
*4 io_in[12]
*5 io_in[13]
*6 io_in[14]
*7 io_in[15]
*8 io_in[16]
*9 io_in[17]
*10 io_in[18]
*11 io_in[19]
*12 io_in[1]
*13 io_in[20]
*14 io_in[21]
*15 io_in[22]
*16 io_in[23]
*17 io_in[24]
*18 io_in[25]
*19 io_in[26]
*20 io_in[27]
*21 io_in[28]
*22 io_in[29]
*23 io_in[2]
*24 io_in[30]
*25 io_in[31]
*26 io_in[32]
*27 io_in[33]
*28 io_in[34]
*29 io_in[35]
*30 io_in[36]
*31 io_in[37]
*32 io_in[3]
*33 io_in[4]
*34 io_in[5]
*35 io_in[6]
*36 io_in[7]
*37 io_in[8]
*38 io_in[9]
*39 io_oeb[0]
*40 io_oeb[10]
*41 io_oeb[11]
*42 io_oeb[12]
*43 io_oeb[13]
*44 io_oeb[14]
*45 io_oeb[15]
*46 io_oeb[16]
*47 io_oeb[17]
*48 io_oeb[18]
*49 io_oeb[19]
*50 io_oeb[1]
*51 io_oeb[20]
*52 io_oeb[21]
*53 io_oeb[22]
*54 io_oeb[23]
*55 io_oeb[24]
*56 io_oeb[25]
*57 io_oeb[26]
*58 io_oeb[27]
*59 io_oeb[28]
*60 io_oeb[29]
*61 io_oeb[2]
*62 io_oeb[30]
*63 io_oeb[31]
*64 io_oeb[32]
*65 io_oeb[33]
*66 io_oeb[34]
*67 io_oeb[35]
*68 io_oeb[36]
*69 io_oeb[37]
*70 io_oeb[3]
*71 io_oeb[4]
*72 io_oeb[5]
*73 io_oeb[6]
*74 io_oeb[7]
*75 io_oeb[8]
*76 io_oeb[9]
*77 io_out[0]
*78 io_out[10]
*79 io_out[11]
*80 io_out[12]
*81 io_out[13]
*82 io_out[14]
*83 io_out[15]
*84 io_out[16]
*85 io_out[17]
*86 io_out[18]
*87 io_out[19]
*88 io_out[1]
*89 io_out[20]
*90 io_out[21]
*91 io_out[22]
*92 io_out[23]
*93 io_out[24]
*94 io_out[25]
*95 io_out[26]
*96 io_out[27]
*97 io_out[28]
*98 io_out[29]
*99 io_out[2]
*100 io_out[30]
*101 io_out[31]
*102 io_out[32]
*103 io_out[33]
*104 io_out[34]
*105 io_out[35]
*106 io_out[36]
*107 io_out[37]
*108 io_out[3]
*109 io_out[4]
*110 io_out[5]
*111 io_out[6]
*112 io_out[7]
*113 io_out[8]
*114 io_out[9]
*115 la_data_in[0]
*116 la_data_in[10]
*117 la_data_in[11]
*118 la_data_in[12]
*119 la_data_in[13]
*120 la_data_in[14]
*121 la_data_in[15]
*122 la_data_in[16]
*123 la_data_in[17]
*124 la_data_in[18]
*125 la_data_in[19]
*126 la_data_in[1]
*127 la_data_in[20]
*128 la_data_in[21]
*129 la_data_in[22]
*130 la_data_in[23]
*131 la_data_in[24]
*132 la_data_in[25]
*133 la_data_in[26]
*134 la_data_in[27]
*135 la_data_in[28]
*136 la_data_in[29]
*137 la_data_in[2]
*138 la_data_in[30]
*139 la_data_in[31]
*140 la_data_in[32]
*141 la_data_in[33]
*142 la_data_in[34]
*143 la_data_in[35]
*144 la_data_in[36]
*145 la_data_in[37]
*146 la_data_in[38]
*147 la_data_in[39]
*148 la_data_in[3]
*149 la_data_in[40]
*150 la_data_in[41]
*151 la_data_in[42]
*152 la_data_in[43]
*153 la_data_in[44]
*154 la_data_in[45]
*155 la_data_in[46]
*156 la_data_in[47]
*157 la_data_in[48]
*158 la_data_in[49]
*159 la_data_in[4]
*160 la_data_in[50]
*161 la_data_in[51]
*162 la_data_in[52]
*163 la_data_in[53]
*164 la_data_in[54]
*165 la_data_in[55]
*166 la_data_in[56]
*167 la_data_in[57]
*168 la_data_in[58]
*169 la_data_in[59]
*170 la_data_in[5]
*171 la_data_in[60]
*172 la_data_in[61]
*173 la_data_in[62]
*174 la_data_in[63]
*175 la_data_in[6]
*176 la_data_in[7]
*177 la_data_in[8]
*178 la_data_in[9]
*179 la_data_out[0]
*180 la_data_out[10]
*181 la_data_out[11]
*182 la_data_out[12]
*183 la_data_out[13]
*184 la_data_out[14]
*185 la_data_out[15]
*186 la_data_out[16]
*187 la_data_out[17]
*188 la_data_out[18]
*189 la_data_out[19]
*190 la_data_out[1]
*191 la_data_out[20]
*192 la_data_out[21]
*193 la_data_out[22]
*194 la_data_out[23]
*195 la_data_out[24]
*196 la_data_out[25]
*197 la_data_out[26]
*198 la_data_out[27]
*199 la_data_out[28]
*200 la_data_out[29]
*201 la_data_out[2]
*202 la_data_out[30]
*203 la_data_out[31]
*204 la_data_out[32]
*205 la_data_out[33]
*206 la_data_out[34]
*207 la_data_out[35]
*208 la_data_out[36]
*209 la_data_out[37]
*210 la_data_out[38]
*211 la_data_out[39]
*212 la_data_out[3]
*213 la_data_out[40]
*214 la_data_out[41]
*215 la_data_out[42]
*216 la_data_out[43]
*217 la_data_out[44]
*218 la_data_out[45]
*219 la_data_out[46]
*220 la_data_out[47]
*221 la_data_out[48]
*222 la_data_out[49]
*223 la_data_out[4]
*224 la_data_out[50]
*225 la_data_out[51]
*226 la_data_out[52]
*227 la_data_out[53]
*228 la_data_out[54]
*229 la_data_out[55]
*230 la_data_out[56]
*231 la_data_out[57]
*232 la_data_out[58]
*233 la_data_out[59]
*234 la_data_out[5]
*235 la_data_out[60]
*236 la_data_out[61]
*237 la_data_out[62]
*238 la_data_out[63]
*239 la_data_out[6]
*240 la_data_out[7]
*241 la_data_out[8]
*242 la_data_out[9]
*243 la_oenb[0]
*244 la_oenb[10]
*245 la_oenb[11]
*246 la_oenb[12]
*247 la_oenb[13]
*248 la_oenb[14]
*249 la_oenb[15]
*250 la_oenb[16]
*251 la_oenb[17]
*252 la_oenb[18]
*253 la_oenb[19]
*254 la_oenb[1]
*255 la_oenb[20]
*256 la_oenb[21]
*257 la_oenb[22]
*258 la_oenb[23]
*259 la_oenb[24]
*260 la_oenb[25]
*261 la_oenb[26]
*262 la_oenb[27]
*263 la_oenb[28]
*264 la_oenb[29]
*265 la_oenb[2]
*266 la_oenb[30]
*267 la_oenb[31]
*268 la_oenb[32]
*269 la_oenb[33]
*270 la_oenb[34]
*271 la_oenb[35]
*272 la_oenb[36]
*273 la_oenb[37]
*274 la_oenb[38]
*275 la_oenb[39]
*276 la_oenb[3]
*277 la_oenb[40]
*278 la_oenb[41]
*279 la_oenb[42]
*280 la_oenb[43]
*281 la_oenb[44]
*282 la_oenb[45]
*283 la_oenb[46]
*284 la_oenb[47]
*285 la_oenb[48]
*286 la_oenb[49]
*287 la_oenb[4]
*288 la_oenb[50]
*289 la_oenb[51]
*290 la_oenb[52]
*291 la_oenb[53]
*292 la_oenb[54]
*293 la_oenb[55]
*294 la_oenb[56]
*295 la_oenb[57]
*296 la_oenb[58]
*297 la_oenb[59]
*298 la_oenb[5]
*299 la_oenb[60]
*300 la_oenb[61]
*301 la_oenb[62]
*302 la_oenb[63]
*303 la_oenb[6]
*304 la_oenb[7]
*305 la_oenb[8]
*306 la_oenb[9]
*307 user_clock2
*308 user_irq[0]
*309 user_irq[1]
*310 user_irq[2]
*313 wb_clk_i
*314 wb_rst_i
*315 wbs_ack_o
*316 wbs_adr_i[0]
*317 wbs_adr_i[10]
*318 wbs_adr_i[11]
*319 wbs_adr_i[12]
*320 wbs_adr_i[13]
*321 wbs_adr_i[14]
*322 wbs_adr_i[15]
*323 wbs_adr_i[16]
*324 wbs_adr_i[17]
*325 wbs_adr_i[18]
*326 wbs_adr_i[19]
*327 wbs_adr_i[1]
*328 wbs_adr_i[20]
*329 wbs_adr_i[21]
*330 wbs_adr_i[22]
*331 wbs_adr_i[23]
*332 wbs_adr_i[24]
*333 wbs_adr_i[25]
*334 wbs_adr_i[26]
*335 wbs_adr_i[27]
*336 wbs_adr_i[28]
*337 wbs_adr_i[29]
*338 wbs_adr_i[2]
*339 wbs_adr_i[30]
*340 wbs_adr_i[31]
*341 wbs_adr_i[3]
*342 wbs_adr_i[4]
*343 wbs_adr_i[5]
*344 wbs_adr_i[6]
*345 wbs_adr_i[7]
*346 wbs_adr_i[8]
*347 wbs_adr_i[9]
*348 wbs_cyc_i
*349 wbs_dat_i[0]
*350 wbs_dat_i[10]
*351 wbs_dat_i[11]
*352 wbs_dat_i[12]
*353 wbs_dat_i[13]
*354 wbs_dat_i[14]
*355 wbs_dat_i[15]
*356 wbs_dat_i[16]
*357 wbs_dat_i[17]
*358 wbs_dat_i[18]
*359 wbs_dat_i[19]
*360 wbs_dat_i[1]
*361 wbs_dat_i[20]
*362 wbs_dat_i[21]
*363 wbs_dat_i[22]
*364 wbs_dat_i[23]
*365 wbs_dat_i[24]
*366 wbs_dat_i[25]
*367 wbs_dat_i[26]
*368 wbs_dat_i[27]
*369 wbs_dat_i[28]
*370 wbs_dat_i[29]
*371 wbs_dat_i[2]
*372 wbs_dat_i[30]
*373 wbs_dat_i[31]
*374 wbs_dat_i[3]
*375 wbs_dat_i[4]
*376 wbs_dat_i[5]
*377 wbs_dat_i[6]
*378 wbs_dat_i[7]
*379 wbs_dat_i[8]
*380 wbs_dat_i[9]
*381 wbs_dat_o[0]
*382 wbs_dat_o[10]
*383 wbs_dat_o[11]
*384 wbs_dat_o[12]
*385 wbs_dat_o[13]
*386 wbs_dat_o[14]
*387 wbs_dat_o[15]
*388 wbs_dat_o[16]
*389 wbs_dat_o[17]
*390 wbs_dat_o[18]
*391 wbs_dat_o[19]
*392 wbs_dat_o[1]
*393 wbs_dat_o[20]
*394 wbs_dat_o[21]
*395 wbs_dat_o[22]
*396 wbs_dat_o[23]
*397 wbs_dat_o[24]
*398 wbs_dat_o[25]
*399 wbs_dat_o[26]
*400 wbs_dat_o[27]
*401 wbs_dat_o[28]
*402 wbs_dat_o[29]
*403 wbs_dat_o[2]
*404 wbs_dat_o[30]
*405 wbs_dat_o[31]
*406 wbs_dat_o[3]
*407 wbs_dat_o[4]
*408 wbs_dat_o[5]
*409 wbs_dat_o[6]
*410 wbs_dat_o[7]
*411 wbs_dat_o[8]
*412 wbs_dat_o[9]
*413 wbs_sel_i[0]
*414 wbs_sel_i[1]
*415 wbs_sel_i[2]
*416 wbs_sel_i[3]
*417 wbs_stb_i
*418 wbs_we_i
*419 suma_mult_TOP

*PORTS
io_in[0] I
io_in[10] I
io_in[11] I
io_in[12] I
io_in[13] I
io_in[14] I
io_in[15] I
io_in[16] I
io_in[17] I
io_in[18] I
io_in[19] I
io_in[1] I
io_in[20] I
io_in[21] I
io_in[22] I
io_in[23] I
io_in[24] I
io_in[25] I
io_in[26] I
io_in[27] I
io_in[28] I
io_in[29] I
io_in[2] I
io_in[30] I
io_in[31] I
io_in[32] I
io_in[33] I
io_in[34] I
io_in[35] I
io_in[36] I
io_in[37] I
io_in[3] I
io_in[4] I
io_in[5] I
io_in[6] I
io_in[7] I
io_in[8] I
io_in[9] I
io_oeb[0] O
io_oeb[10] O
io_oeb[11] O
io_oeb[12] O
io_oeb[13] O
io_oeb[14] O
io_oeb[15] O
io_oeb[16] O
io_oeb[17] O
io_oeb[18] O
io_oeb[19] O
io_oeb[1] O
io_oeb[20] O
io_oeb[21] O
io_oeb[22] O
io_oeb[23] O
io_oeb[24] O
io_oeb[25] O
io_oeb[26] O
io_oeb[27] O
io_oeb[28] O
io_oeb[29] O
io_oeb[2] O
io_oeb[30] O
io_oeb[31] O
io_oeb[32] O
io_oeb[33] O
io_oeb[34] O
io_oeb[35] O
io_oeb[36] O
io_oeb[37] O
io_oeb[3] O
io_oeb[4] O
io_oeb[5] O
io_oeb[6] O
io_oeb[7] O
io_oeb[8] O
io_oeb[9] O
io_out[0] O
io_out[10] O
io_out[11] O
io_out[12] O
io_out[13] O
io_out[14] O
io_out[15] O
io_out[16] O
io_out[17] O
io_out[18] O
io_out[19] O
io_out[1] O
io_out[20] O
io_out[21] O
io_out[22] O
io_out[23] O
io_out[24] O
io_out[25] O
io_out[26] O
io_out[27] O
io_out[28] O
io_out[29] O
io_out[2] O
io_out[30] O
io_out[31] O
io_out[32] O
io_out[33] O
io_out[34] O
io_out[35] O
io_out[36] O
io_out[37] O
io_out[3] O
io_out[4] O
io_out[5] O
io_out[6] O
io_out[7] O
io_out[8] O
io_out[9] O
la_data_in[0] I
la_data_in[10] I
la_data_in[11] I
la_data_in[12] I
la_data_in[13] I
la_data_in[14] I
la_data_in[15] I
la_data_in[16] I
la_data_in[17] I
la_data_in[18] I
la_data_in[19] I
la_data_in[1] I
la_data_in[20] I
la_data_in[21] I
la_data_in[22] I
la_data_in[23] I
la_data_in[24] I
la_data_in[25] I
la_data_in[26] I
la_data_in[27] I
la_data_in[28] I
la_data_in[29] I
la_data_in[2] I
la_data_in[30] I
la_data_in[31] I
la_data_in[32] I
la_data_in[33] I
la_data_in[34] I
la_data_in[35] I
la_data_in[36] I
la_data_in[37] I
la_data_in[38] I
la_data_in[39] I
la_data_in[3] I
la_data_in[40] I
la_data_in[41] I
la_data_in[42] I
la_data_in[43] I
la_data_in[44] I
la_data_in[45] I
la_data_in[46] I
la_data_in[47] I
la_data_in[48] I
la_data_in[49] I
la_data_in[4] I
la_data_in[50] I
la_data_in[51] I
la_data_in[52] I
la_data_in[53] I
la_data_in[54] I
la_data_in[55] I
la_data_in[56] I
la_data_in[57] I
la_data_in[58] I
la_data_in[59] I
la_data_in[5] I
la_data_in[60] I
la_data_in[61] I
la_data_in[62] I
la_data_in[63] I
la_data_in[6] I
la_data_in[7] I
la_data_in[8] I
la_data_in[9] I
la_data_out[0] O
la_data_out[10] O
la_data_out[11] O
la_data_out[12] O
la_data_out[13] O
la_data_out[14] O
la_data_out[15] O
la_data_out[16] O
la_data_out[17] O
la_data_out[18] O
la_data_out[19] O
la_data_out[1] O
la_data_out[20] O
la_data_out[21] O
la_data_out[22] O
la_data_out[23] O
la_data_out[24] O
la_data_out[25] O
la_data_out[26] O
la_data_out[27] O
la_data_out[28] O
la_data_out[29] O
la_data_out[2] O
la_data_out[30] O
la_data_out[31] O
la_data_out[32] O
la_data_out[33] O
la_data_out[34] O
la_data_out[35] O
la_data_out[36] O
la_data_out[37] O
la_data_out[38] O
la_data_out[39] O
la_data_out[3] O
la_data_out[40] O
la_data_out[41] O
la_data_out[42] O
la_data_out[43] O
la_data_out[44] O
la_data_out[45] O
la_data_out[46] O
la_data_out[47] O
la_data_out[48] O
la_data_out[49] O
la_data_out[4] O
la_data_out[50] O
la_data_out[51] O
la_data_out[52] O
la_data_out[53] O
la_data_out[54] O
la_data_out[55] O
la_data_out[56] O
la_data_out[57] O
la_data_out[58] O
la_data_out[59] O
la_data_out[5] O
la_data_out[60] O
la_data_out[61] O
la_data_out[62] O
la_data_out[63] O
la_data_out[6] O
la_data_out[7] O
la_data_out[8] O
la_data_out[9] O
la_oenb[0] I
la_oenb[10] I
la_oenb[11] I
la_oenb[12] I
la_oenb[13] I
la_oenb[14] I
la_oenb[15] I
la_oenb[16] I
la_oenb[17] I
la_oenb[18] I
la_oenb[19] I
la_oenb[1] I
la_oenb[20] I
la_oenb[21] I
la_oenb[22] I
la_oenb[23] I
la_oenb[24] I
la_oenb[25] I
la_oenb[26] I
la_oenb[27] I
la_oenb[28] I
la_oenb[29] I
la_oenb[2] I
la_oenb[30] I
la_oenb[31] I
la_oenb[32] I
la_oenb[33] I
la_oenb[34] I
la_oenb[35] I
la_oenb[36] I
la_oenb[37] I
la_oenb[38] I
la_oenb[39] I
la_oenb[3] I
la_oenb[40] I
la_oenb[41] I
la_oenb[42] I
la_oenb[43] I
la_oenb[44] I
la_oenb[45] I
la_oenb[46] I
la_oenb[47] I
la_oenb[48] I
la_oenb[49] I
la_oenb[4] I
la_oenb[50] I
la_oenb[51] I
la_oenb[52] I
la_oenb[53] I
la_oenb[54] I
la_oenb[55] I
la_oenb[56] I
la_oenb[57] I
la_oenb[58] I
la_oenb[59] I
la_oenb[5] I
la_oenb[60] I
la_oenb[61] I
la_oenb[62] I
la_oenb[63] I
la_oenb[6] I
la_oenb[7] I
la_oenb[8] I
la_oenb[9] I
user_clock2 I
user_irq[0] O
user_irq[1] O
user_irq[2] O
wb_clk_i I
wb_rst_i I
wbs_ack_o O
wbs_adr_i[0] I
wbs_adr_i[10] I
wbs_adr_i[11] I
wbs_adr_i[12] I
wbs_adr_i[13] I
wbs_adr_i[14] I
wbs_adr_i[15] I
wbs_adr_i[16] I
wbs_adr_i[17] I
wbs_adr_i[18] I
wbs_adr_i[19] I
wbs_adr_i[1] I
wbs_adr_i[20] I
wbs_adr_i[21] I
wbs_adr_i[22] I
wbs_adr_i[23] I
wbs_adr_i[24] I
wbs_adr_i[25] I
wbs_adr_i[26] I
wbs_adr_i[27] I
wbs_adr_i[28] I
wbs_adr_i[29] I
wbs_adr_i[2] I
wbs_adr_i[30] I
wbs_adr_i[31] I
wbs_adr_i[3] I
wbs_adr_i[4] I
wbs_adr_i[5] I
wbs_adr_i[6] I
wbs_adr_i[7] I
wbs_adr_i[8] I
wbs_adr_i[9] I
wbs_cyc_i I
wbs_dat_i[0] I
wbs_dat_i[10] I
wbs_dat_i[11] I
wbs_dat_i[12] I
wbs_dat_i[13] I
wbs_dat_i[14] I
wbs_dat_i[15] I
wbs_dat_i[16] I
wbs_dat_i[17] I
wbs_dat_i[18] I
wbs_dat_i[19] I
wbs_dat_i[1] I
wbs_dat_i[20] I
wbs_dat_i[21] I
wbs_dat_i[22] I
wbs_dat_i[23] I
wbs_dat_i[24] I
wbs_dat_i[25] I
wbs_dat_i[26] I
wbs_dat_i[27] I
wbs_dat_i[28] I
wbs_dat_i[29] I
wbs_dat_i[2] I
wbs_dat_i[30] I
wbs_dat_i[31] I
wbs_dat_i[3] I
wbs_dat_i[4] I
wbs_dat_i[5] I
wbs_dat_i[6] I
wbs_dat_i[7] I
wbs_dat_i[8] I
wbs_dat_i[9] I
wbs_dat_o[0] O
wbs_dat_o[10] O
wbs_dat_o[11] O
wbs_dat_o[12] O
wbs_dat_o[13] O
wbs_dat_o[14] O
wbs_dat_o[15] O
wbs_dat_o[16] O
wbs_dat_o[17] O
wbs_dat_o[18] O
wbs_dat_o[19] O
wbs_dat_o[1] O
wbs_dat_o[20] O
wbs_dat_o[21] O
wbs_dat_o[22] O
wbs_dat_o[23] O
wbs_dat_o[24] O
wbs_dat_o[25] O
wbs_dat_o[26] O
wbs_dat_o[27] O
wbs_dat_o[28] O
wbs_dat_o[29] O
wbs_dat_o[2] O
wbs_dat_o[30] O
wbs_dat_o[31] O
wbs_dat_o[3] O
wbs_dat_o[4] O
wbs_dat_o[5] O
wbs_dat_o[6] O
wbs_dat_o[7] O
wbs_dat_o[8] O
wbs_dat_o[9] O
wbs_sel_i[0] I
wbs_sel_i[1] I
wbs_sel_i[2] I
wbs_sel_i[3] I
wbs_stb_i I
wbs_we_i I

*D_NET *77 0.27137
*CONN
*P io_out[0] O
*I *419:b O *D suma_mult_TOP
*CAP
1 io_out[0] 0.00462267
2 *419:b 0.000571689
3 *77:11 0.0364908
4 *77:10 0.0318681
5 *77:8 0.0986227
6 *77:7 0.0991944
*RES
1 *419:b *77:7 8.685 
2 *77:7 *77:8 607.23 
3 *77:8 *77:10 4.5 
4 *77:10 *77:11 249.84 
5 *77:11 io_out[0] 36.945 
*END

*D_NET *313 0.351167
*CONN
*P wb_clk_i I
*I *419:clk I *D suma_mult_TOP
*CAP
1 wb_clk_i 0.00191449
2 *419:clk 0.000541512
3 *313:14 0.0787765
4 *313:13 0.078235
5 *313:11 0.0948927
6 *313:10 0.0968072
*RES
1 wb_clk_i *313:10 22.275 
2 *313:10 *313:11 733.23 
3 *313:11 *313:13 4.5 
4 *313:13 *313:14 496.71 
5 *313:14 *419:clk 8.505 
*END

*D_NET *349 0.229048
*CONN
*P wbs_dat_i[0] I
*I *419:n[0] I *D suma_mult_TOP
*CAP
1 wbs_dat_i[0] 0.00170158
2 *419:n[0] 0.000615233
3 *349:14 0.0436961
4 *349:13 0.0430809
5 *349:11 0.0688382
6 *349:10 0.0705398
7 *349:10 wbs_dat_o[0] 0.000576351
*RES
1 wbs_dat_i[0] *349:10 19.935 
2 *349:10 *349:11 531.81 
3 *349:11 *349:13 4.5 
4 *349:13 *349:14 338.13 
5 *349:14 *419:n[0] 9.225 
*END

*D_NET *350 0.218282
*CONN
*P wbs_dat_i[10] I
*I *419:n[10] I *D suma_mult_TOP
*CAP
1 wbs_dat_i[10] 9.76891e-05
2 *419:n[10] 0.00023556
3 *350:19 0.0583433
4 *350:18 0.0581077
5 *350:16 0.0381856
6 *350:15 0.0381856
7 *350:13 0.0125145
8 *350:11 0.0126122
*RES
1 wbs_dat_i[10] *350:11 1.215 
2 *350:11 *350:13 95.31 
3 *350:13 *350:15 4.5 
4 *350:15 *350:16 297.09 
5 *350:16 *350:18 4.5 
6 *350:18 *350:19 447.57 
7 *350:19 *419:n[10] 1.845 
*END

*D_NET *351 0.218095
*CONN
*P wbs_dat_i[11] I
*I *419:n[11] I *D suma_mult_TOP
*CAP
1 wbs_dat_i[11] 0.000235578
2 *419:n[11] 0.00331642
3 *351:19 0.0590398
4 *351:18 0.0557234
5 *351:16 0.0354437
6 *351:15 0.0354437
7 *351:13 0.0143283
8 *351:11 0.0145639
9 *351:19 *379:19 0
*RES
1 wbs_dat_i[11] *351:11 2.295 
2 *351:11 *351:13 108.81 
3 *351:13 *351:15 4.5 
4 *351:15 *351:16 276.75 
5 *351:16 *351:18 4.5 
6 *351:18 *351:19 429.39 
7 *351:19 *419:n[11] 33.795 
*END

*D_NET *352 0.216701
*CONN
*P wbs_dat_i[12] I
*I *419:n[12] I *D suma_mult_TOP
*CAP
1 wbs_dat_i[12] 0.0011908
2 *419:n[12] 0.000114908
3 *352:11 0.069645
4 *352:10 0.0695301
5 *352:8 0.0375146
6 *352:7 0.0387054
*RES
1 wbs_dat_i[12] *352:7 13.365 
2 *352:7 *352:8 291.33 
3 *352:8 *352:10 4.5 
4 *352:10 *352:11 533.34 
5 *352:11 *419:n[12] 0.945 
*END

*D_NET *353 0.215833
*CONN
*P wbs_dat_i[13] I
*I *419:n[13] I *D suma_mult_TOP
*CAP
1 wbs_dat_i[13] 0.0018962
2 *419:n[13] 9.76714e-05
3 *353:11 0.0689926
4 *353:10 0.0688949
5 *353:8 0.0370276
6 *353:7 0.0389238
7 *353:7 *385:17 0
*RES
1 wbs_dat_i[13] *353:7 18.765 
2 *353:7 *353:8 287.55 
3 *353:8 *353:10 4.5 
4 *353:10 *353:11 528.57 
5 *353:11 *419:n[13] 0.765 
*END

*D_NET *354 0.214828
*CONN
*P wbs_dat_i[14] I
*I *419:n[14] I *D suma_mult_TOP
*CAP
1 wbs_dat_i[14] 0.00155148
2 *419:n[14] 0.000166616
3 *354:11 0.0694063
4 *354:10 0.0692396
5 *354:8 0.0364561
6 *354:7 0.0380075
*RES
1 wbs_dat_i[14] *354:7 16.065 
2 *354:7 *354:8 283.77 
3 *354:8 *354:10 4.5 
4 *354:10 *354:11 531.27 
5 *354:11 *419:n[14] 1.305 
*END

*D_NET *355 0.214092
*CONN
*P wbs_dat_i[15] I
*I *419:n[15] I *D suma_mult_TOP
*CAP
1 wbs_dat_i[15] 0.00230014
2 *419:n[15] 0.00023556
3 *355:11 0.0687425
4 *355:10 0.068507
5 *355:8 0.0360033
6 *355:7 0.0383035
7 *355:7 *387:13 0
*RES
1 wbs_dat_i[15] *355:7 21.465 
2 *355:7 *355:8 279.99 
3 *355:8 *355:10 4.5 
4 *355:10 *355:11 525.87 
5 *355:11 *419:n[15] 1.845 
*END

*D_NET *356 0.212756
*CONN
*P wbs_dat_i[16] I
*I *419:start I *D suma_mult_TOP
*CAP
1 wbs_dat_i[16] 0.000232525
2 *419:start 0.00028564
3 *356:16 0.0232534
4 *356:15 0.0229678
5 *356:13 0.0828886
6 *356:11 0.0831211
7 *356:11 *388:15 6.64156e-06
*RES
1 wbs_dat_i[16] *356:11 2.295 
2 *356:11 *356:13 636.75 
3 *356:13 *356:15 4.5 
4 *356:15 *356:16 180.63 
5 *356:16 *419:start 2.385 
*END

*D_NET *360 0.229678
*CONN
*P wbs_dat_i[1] I
*I *419:n[1] I *D suma_mult_TOP
*CAP
1 wbs_dat_i[1] 0.00266026
2 *419:n[1] 0.00142304
3 *360:19 0.0689894
4 *360:18 0.0675664
5 *360:16 0.0431895
6 *360:15 0.0458498
7 *419:n[1] *376:18 0
8 *419:n[1] *377:19 0
*RES
1 wbs_dat_i[1] *360:15 25.425 
2 *360:15 *360:16 333.45 
3 *360:16 *360:18 4.5 
4 *360:18 *360:19 517.23 
5 *360:19 *419:n[1] 18.855 
*END

*D_NET *371 0.225764
*CONN
*P wbs_dat_i[2] I
*I *419:n[2] I *D suma_mult_TOP
*CAP
1 wbs_dat_i[2] 0.00108597
2 *419:n[2] 0.000114908
3 *371:17 0.0549747
4 *371:16 0.0548598
5 *371:14 0.0420839
6 *371:13 0.0420839
7 *371:11 0.0147372
8 *371:10 0.0158231
9 *371:11 wbs_dat_o[2] 0
*RES
1 wbs_dat_i[2] *371:10 16.875 
2 *371:10 *371:11 113.49 
3 *371:11 *371:13 4.5 
4 *371:13 *371:14 328.23 
5 *371:14 *371:16 4.5 
6 *371:16 *371:17 422.64 
7 *371:17 *419:n[2] 0.945 
*END

*D_NET *374 0.225976
*CONN
*P wbs_dat_i[3] I
*I *419:n[3] I *D suma_mult_TOP
*CAP
1 wbs_dat_i[3] 0.00304668
2 *419:n[3] 9.76714e-05
3 *374:19 0.0680429
4 *374:18 0.0679452
5 *374:16 0.0418984
6 *374:15 0.0449451
7 *374:15 *403:13 0
*RES
1 wbs_dat_i[3] *374:15 28.305 
2 *374:15 *374:16 324.09 
3 *374:16 *374:18 4.5 
4 *374:18 *374:19 520.47 
5 *374:19 *419:n[3] 0.765 
*END

*D_NET *375 0.225213
*CONN
*P wbs_dat_i[4] I
*I *419:n[4] I *D suma_mult_TOP
*CAP
1 wbs_dat_i[4] 0.00396543
2 *419:n[4] 0.000166616
3 *375:19 0.0674064
4 *375:18 0.0672398
5 *375:16 0.0412345
6 *375:15 0.0451999
*RES
1 wbs_dat_i[4] *375:15 35.145 
2 *375:15 *375:16 318.69 
3 *375:16 *375:18 4.5 
4 *375:18 *375:19 515.07 
5 *375:19 *419:n[4] 1.305 
*END

*D_NET *376 0.221796
*CONN
*P wbs_dat_i[5] I
*I *419:n[5] I *D suma_mult_TOP
*CAP
1 wbs_dat_i[5] 0.00245501
2 *419:n[5] 0.00100321
3 *376:18 0.040699
4 *376:17 0.0396958
5 *376:15 0.0677442
6 *376:13 0.0701993
7 *419:n[1] *376:18 0
*RES
1 wbs_dat_i[5] *376:13 25.245 
2 *376:13 *376:15 522.54 
3 *376:15 *376:17 4.5 
4 *376:17 *376:18 311.13 
5 *376:18 *419:n[5] 11.925 
*END

*D_NET *377 0.223419
*CONN
*P wbs_dat_i[6] I
*I *419:n[6] I *D suma_mult_TOP
*CAP
1 wbs_dat_i[6] 0.00353019
2 *419:n[6] 0.00428673
3 *377:19 0.0713004
4 *377:18 0.0670137
5 *377:16 0.0368756
6 *377:15 0.0404058
7 *377:15 *408:13 0
8 *377:15 *409:15 6.64156e-06
9 *419:n[1] *377:19 0
*RES
1 wbs_dat_i[6] *377:15 31.905 
2 *377:15 *377:16 284.85 
3 *377:16 *377:18 4.5 
4 *377:18 *377:19 513.09 
5 *377:19 *419:n[6] 41.895 
*END

*D_NET *378 0.221426
*CONN
*P wbs_dat_i[7] I
*I *419:n[7] I *D suma_mult_TOP
*CAP
1 wbs_dat_i[7] 0.00435929
2 *419:n[7] 0.000114908
3 *378:11 0.0665152
4 *378:10 0.0664003
5 *378:8 0.0398383
6 *378:7 0.0441976
*RES
1 wbs_dat_i[7] *378:7 37.665 
2 *378:7 *378:8 307.89 
3 *378:8 *378:10 4.5 
4 *378:10 *378:11 509.04 
5 *378:11 *419:n[7] 0.945 
*END

*D_NET *379 0.221018
*CONN
*P wbs_dat_i[8] I
*I *419:n[8] I *D suma_mult_TOP
*CAP
1 wbs_dat_i[8] 0.00490501
2 *419:n[8] 9.76714e-05
3 *379:19 0.0662076
4 *379:18 0.06611
5 *379:16 0.0393961
6 *379:15 0.0443011
7 *379:15 *410:13 0
8 *351:19 *379:19 0
*RES
1 wbs_dat_i[8] *379:15 42.165 
2 *379:15 *379:16 305.19 
3 *379:16 *379:18 4.5 
4 *379:18 *379:19 506.97 
5 *379:19 *419:n[8] 0.765 
*END

*D_NET *380 0.220581
*CONN
*P wbs_dat_i[9] I
*I *419:n[9] I *D suma_mult_TOP
*CAP
1 wbs_dat_i[9] 0.00578728
2 *419:n[9] 0.000166616
3 *380:19 0.0655492
4 *380:18 0.0653826
5 *380:16 0.0389539
6 *380:15 0.0447412
*RES
1 wbs_dat_i[9] *380:15 48.645 
2 *380:15 *380:16 302.49 
3 *380:16 *380:18 4.5 
4 *380:18 *380:19 501.57 
5 *380:19 *419:n[9] 1.305 
*END

*D_NET *381 0.254438
*CONN
*P wbs_dat_o[0] O
*I *419:X[0] O *D suma_mult_TOP
*CAP
1 wbs_dat_o[0] 0.00135865
2 *419:X[0] 0.000304505
3 *381:15 0.00627673
4 *381:10 0.0602779
5 *381:9 0.0553598
6 *381:7 0.06499
7 *381:5 0.0652945
8 *349:10 wbs_dat_o[0] 0.000576351
*RES
1 *419:X[0] *381:5 2.385 
2 *381:5 *381:7 498.87 
3 *381:7 *381:9 4.5 
4 *381:9 *381:10 428.13 
5 *381:10 *381:15 46.89 
6 *381:15 wbs_dat_o[0] 14.895 
*END

*D_NET *382 0.24289
*CONN
*P wbs_dat_o[10] O
*I *419:X[10] O *D suma_mult_TOP
*CAP
1 wbs_dat_o[10] 0.00635945
2 *419:X[10] 0.000304505
3 *382:12 0.00635945
4 *382:10 0.0502857
5 *382:9 0.0502857
6 *382:7 0.0644954
7 *382:5 0.0647999
*RES
1 *419:X[10] *382:5 2.385 
2 *382:5 *382:7 496.17 
3 *382:7 *382:9 4.5 
4 *382:9 *382:10 388.89 
5 *382:10 *382:12 4.5 
6 *382:12 wbs_dat_o[10] 48.285 
*END

*D_NET *383 0.241934
*CONN
*P wbs_dat_o[11] O
*I *419:X[11] O *D suma_mult_TOP
*CAP
1 wbs_dat_o[11] 0.00114706
2 *419:X[11] 0.000114908
3 *383:15 0.00731522
4 *383:14 0.00616816
5 *383:12 0.0495399
6 *383:11 0.0495399
7 *383:9 0.0636878
8 *383:7 0.0638028
9 wbs_dat_o[11] *411:10 0.000618685
*RES
1 *419:X[11] *383:7 0.945 
2 *383:7 *383:9 490.14 
3 *383:9 *383:11 4.5 
4 *383:11 *383:12 384.93 
5 *383:12 *383:14 4.5 
6 *383:14 *383:15 46.17 
7 *383:15 wbs_dat_o[11] 16.695 
*END

*D_NET *384 0.240476
*CONN
*P wbs_dat_o[12] O
*I *419:X[12] O *D suma_mult_TOP
*CAP
1 wbs_dat_o[12] 0.00421031
2 *419:X[12] 9.76714e-05
3 *384:15 0.00665417
4 *384:10 0.0518113
5 *384:9 0.0493675
6 *384:7 0.0641187
7 *384:5 0.0642164
*RES
1 *419:X[12] *384:5 0.765 
2 *384:5 *384:7 493.47 
3 *384:7 *384:9 4.5 
4 *384:9 *384:10 383.49 
5 *384:10 *384:15 22.59 
6 *384:15 wbs_dat_o[12] 31.815 
*END

*D_NET *385 0.240714
*CONN
*P wbs_dat_o[13] O
*I *419:X[13] O *D suma_mult_TOP
*CAP
1 wbs_dat_o[13] 0.000212597
2 *419:X[13] 0.000774575
3 *385:17 0.0174323
4 *385:16 0.0172197
5 *385:14 0.035614
6 *385:13 0.035614
7 *385:11 0.0529118
8 *385:10 0.0529118
9 *385:8 0.013624
10 *385:7 0.0143986
11 *353:7 *385:17 0
*RES
1 *419:X[13] *385:7 9.225 
2 *385:7 *385:8 105.39 
3 *385:8 *385:10 4.5 
4 *385:10 *385:11 407.79 
5 *385:11 *385:13 4.5 
6 *385:13 *385:14 276.75 
7 *385:14 *385:16 4.5 
8 *385:16 *385:17 130.41 
9 *385:17 wbs_dat_o[13] 2.115 
*END

*D_NET *386 0.240268
*CONN
*P wbs_dat_o[14] O
*I *419:X[14] O *D suma_mult_TOP
*CAP
1 wbs_dat_o[14] 0.0011651
2 *419:X[14] 0.00166119
3 *386:11 0.0697585
4 *386:10 0.0685934
5 *386:8 0.0480092
6 *386:7 0.0496704
7 wbs_dat_o[14] *411:10 0.00141047
*RES
1 *419:X[14] *386:7 14.625 
2 *386:7 *386:8 373.23 
3 *386:8 *386:10 4.5 
4 *386:10 *386:11 526.77 
5 *386:11 wbs_dat_o[14] 18.855 
*END

*D_NET *387 0.238596
*CONN
*P wbs_dat_o[15] O
*I *419:X[15] O *D suma_mult_TOP
*CAP
1 wbs_dat_o[15] 0.000143652
2 *419:X[15] 0.000304505
3 *387:13 0.00750536
4 *387:12 0.00736171
5 *387:10 0.0480909
6 *387:9 0.0480909
7 *387:7 0.0633974
8 *387:5 0.0637019
9 *355:7 *387:13 0
*RES
1 *419:X[15] *387:5 2.385 
2 *387:5 *387:7 488.07 
3 *387:7 *387:9 4.5 
4 *387:9 *387:10 372.69 
5 *387:10 *387:12 4.5 
6 *387:12 *387:13 54.81 
7 *387:13 wbs_dat_o[15] 1.575 
*END

*D_NET *388 0.238305
*CONN
*P wbs_dat_o[16] O
*I *419:X[16] O *D suma_mult_TOP
*CAP
1 wbs_dat_o[16] 0.000281541
2 *419:X[16] 0.000114908
3 *388:15 0.00801014
4 *388:14 0.0077286
5 *388:12 0.0480738
6 *388:11 0.0480738
7 *388:9 0.0629505
8 *388:7 0.0630654
9 *356:11 *388:15 6.64156e-06
*RES
1 *419:X[16] *388:7 0.945 
2 *388:7 *388:9 484.74 
3 *388:9 *388:11 4.5 
4 *388:11 *388:12 372.69 
5 *388:12 *388:14 4.5 
6 *388:14 *388:15 57.51 
7 *388:15 wbs_dat_o[16] 2.655 
*END

*D_NET *389 0.236421
*CONN
*P wbs_dat_o[17] O
*I *419:X[17] O *D suma_mult_TOP
*CAP
1 wbs_dat_o[17] 0.0042582
2 *419:X[17] 9.76714e-05
3 *389:15 0.00848952
4 *389:10 0.0515395
5 *389:9 0.0473082
6 *389:7 0.0623153
7 *389:5 0.062413
*RES
1 *419:X[17] *389:5 0.765 
2 *389:5 *389:7 479.97 
3 *389:7 *389:9 4.5 
4 *389:9 *389:10 367.29 
5 *389:10 *389:15 36.09 
6 *389:15 wbs_dat_o[17] 31.815 
*END

*D_NET *390 0.236355
*CONN
*P wbs_dat_o[18] O
*I *419:X[18] O *D suma_mult_TOP
*CAP
1 wbs_dat_o[18] 0.00432191
2 *419:X[18] 0.00431552
3 *390:14 0.0478665
4 *390:13 0.0435446
5 *390:11 0.0659954
6 *390:10 0.0703109
*RES
1 *419:X[18] *390:10 40.815 
2 *390:10 *390:11 507.69 
3 *390:11 *390:13 4.5 
4 *390:13 *390:14 338.85 
5 *390:14 wbs_dat_o[18] 37.125 
*END

*D_NET *391 0.235055
*CONN
*P wbs_dat_o[19] O
*I *419:X[19] O *D suma_mult_TOP
*CAP
1 wbs_dat_o[19] 0.00520745
2 *419:X[19] 0.00156749
3 *391:14 0.0512702
4 *391:13 0.0460627
5 *391:11 0.0646896
6 *391:10 0.0662571
*RES
1 *419:X[19] *391:10 18.315 
2 *391:10 *391:11 498.33 
3 *391:11 *391:13 4.5 
4 *391:13 *391:14 357.75 
5 *391:14 wbs_dat_o[19] 43.065 
*END

*D_NET *392 0.2523
*CONN
*P wbs_dat_o[1] O
*I *419:X[1] O *D suma_mult_TOP
*CAP
1 wbs_dat_o[1] 0.000143652
2 *419:X[1] 0.000114908
3 *392:15 0.00867342
4 *392:14 0.00852977
5 *392:12 0.0553906
6 *392:11 0.0553906
7 *392:9 0.0619709
8 *392:7 0.0620858
*RES
1 *419:X[1] *392:7 0.945 
2 *392:7 *392:9 476.64 
3 *392:9 *392:11 4.5 
4 *392:11 *392:12 429.39 
5 *392:12 *392:14 4.5 
6 *392:14 *392:15 65.61 
7 *392:15 wbs_dat_o[1] 1.575 
*END

*D_NET *393 0.234611
*CONN
*P wbs_dat_o[20] O
*I *419:X[20] O *D suma_mult_TOP
*CAP
1 wbs_dat_o[20] 0.000143652
2 *419:X[20] 0.000304505
3 *393:13 0.00934658
4 *393:12 0.00920293
5 *393:10 0.0460662
6 *393:9 0.0460662
7 *393:7 0.0615881
8 *393:5 0.0618926
9 *393:7 *397:11 0
*RES
1 *419:X[20] *393:5 2.385 
2 *393:5 *393:7 474.57 
3 *393:7 *393:9 4.5 
4 *393:9 *393:10 356.49 
5 *393:10 *393:12 4.5 
6 *393:12 *393:13 68.31 
7 *393:13 wbs_dat_o[20] 1.575 
*END

*D_NET *394 0.23415
*CONN
*P wbs_dat_o[21] O
*I *419:X[21] O *D suma_mult_TOP
*CAP
1 wbs_dat_o[21] 0.000281541
2 *419:X[21] 0.000114908
3 *394:15 0.00985442
4 *394:14 0.00957288
5 *394:12 0.0459646
6 *394:11 0.0459646
7 *394:9 0.0611412
8 *394:7 0.0612561
*RES
1 *419:X[21] *394:7 0.945 
2 *394:7 *394:9 471.24 
3 *394:9 *394:11 4.5 
4 *394:11 *394:12 356.49 
5 *394:12 *394:14 4.5 
6 *394:14 *394:15 71.01 
7 *394:15 wbs_dat_o[21] 2.655 
*END

*D_NET *395 0.232536
*CONN
*P wbs_dat_o[22] O
*I *419:X[22] O *D suma_mult_TOP
*CAP
1 wbs_dat_o[22] 0.00427416
2 *419:X[22] 9.76714e-05
3 *395:15 0.010358
4 *395:10 0.0514017
5 *395:9 0.0453178
6 *395:7 0.0604947
7 *395:5 0.0605924
*RES
1 *419:X[22] *395:5 0.765 
2 *395:5 *395:7 466.47 
3 *395:7 *395:9 4.5 
4 *395:9 *395:10 351.09 
5 *395:10 *395:15 49.59 
6 *395:15 wbs_dat_o[22] 31.815 
*END

*D_NET *396 0.232771
*CONN
*P wbs_dat_o[23] O
*I *419:X[23] O *D suma_mult_TOP
*CAP
1 wbs_dat_o[23] 0.00117522
2 *419:X[23] 0.00169265
3 *396:11 0.0695675
4 *396:10 0.0683923
5 *396:8 0.0447056
6 *396:7 0.0463983
7 wbs_dat_o[23] *411:10 0.000838976
*RES
1 *419:X[23] *396:7 17.325 
2 *396:7 *396:8 345.69 
3 *396:8 *396:10 4.5 
4 *396:10 *396:11 524.07 
5 *396:11 wbs_dat_o[23] 17.235 
*END

*D_NET *397 0.230648
*CONN
*P wbs_dat_o[24] O
*I *419:X[24] O *D suma_mult_TOP
*CAP
1 wbs_dat_o[24] 0.00811852
2 *419:X[24] 0.00422205
3 *397:16 0.00811852
4 *397:14 0.0409248
5 *397:13 0.0409248
6 *397:11 0.0620585
7 *397:10 0.0662806
8 *393:7 *397:11 0
*RES
1 *419:X[24] *397:10 41.355 
2 *397:10 *397:11 477.99 
3 *397:11 *397:13 4.5 
4 *397:13 *397:14 317.25 
5 *397:14 *397:16 4.5 
6 *397:16 wbs_dat_o[24] 60.165 
*END

*D_NET *398 0.230393
*CONN
*P wbs_dat_o[25] O
*I *419:X[25] O *D suma_mult_TOP
*CAP
1 wbs_dat_o[25] 0.000143652
2 *419:X[25] 0.000304505
3 *398:13 0.0108166
4 *398:12 0.010673
5 *398:10 0.0439733
6 *398:9 0.0439733
7 *398:7 0.0601021
8 *398:5 0.0604066
*RES
1 *419:X[25] *398:5 2.385 
2 *398:5 *398:7 463.77 
3 *398:7 *398:9 4.5 
4 *398:9 *398:10 340.29 
5 *398:10 *398:12 4.5 
6 *398:12 *398:13 79.11 
7 *398:13 wbs_dat_o[25] 1.575 
*END

*D_NET *399 0.230136
*CONN
*P wbs_dat_o[26] O
*I *419:X[26] O *D suma_mult_TOP
*CAP
1 wbs_dat_o[26] 0.000281541
2 *419:X[26] 0.000114908
3 *399:15 0.0116692
4 *399:14 0.0113876
5 *399:12 0.0439733
6 *399:11 0.0439733
7 *399:9 0.0593105
8 *399:7 0.0594254
*RES
1 *419:X[26] *399:7 0.945 
2 *399:7 *399:9 457.74 
3 *399:9 *399:11 4.5 
4 *399:11 *399:12 340.29 
5 *399:12 *399:14 4.5 
6 *399:14 *399:15 84.51 
7 *399:15 wbs_dat_o[26] 2.655 
*END

*D_NET *400 0.228081
*CONN
*P wbs_dat_o[27] O
*I *419:X[27] O *D suma_mult_TOP
*CAP
1 wbs_dat_o[27] 0.00433161
2 *419:X[27] 9.76714e-05
3 *400:13 0.0118008
4 *400:12 0.00746915
5 *400:10 0.0431063
6 *400:9 0.0431063
7 *400:7 0.059036
8 *400:5 0.0591337
*RES
1 *419:X[27] *400:5 0.765 
2 *400:5 *400:7 455.67 
3 *400:7 *400:9 4.5 
4 *400:9 *400:10 334.89 
5 *400:10 *400:12 4.5 
6 *400:12 *400:13 55.44 
7 *400:13 wbs_dat_o[27] 32.265 
*END

*D_NET *401 0.22813
*CONN
*P wbs_dat_o[28] O
*I *419:X[28] O *D suma_mult_TOP
*CAP
1 wbs_dat_o[28] 0.000212597
2 *419:X[28] 0.000166616
3 *401:13 0.0123216
4 *401:12 0.012109